6419746
  -OEChem-11021604552D

 29 30  0     0  0  0  0  0  0999 V2000
    3.7320   -2.9268    0.0000 O   0  0  0  0  0  0  0  0  0  0  0  0
    5.7195    0.1883    0.0000 O   0  0  0  0  0  0  0  0  0  0  0  0
    3.9595    3.2368    0.0000 O   0  0  0  0  0  0  0  0  0  0  0  0
    3.7320    0.0732    0.0000 C   0  0  0  0  0  0  0  0  0  0  0  0
    2.8660   -1.4268    0.0000 C   0  0  0  0  0  0  0  0  0  0  0  0
    4.5981   -1.4268    0.0000 C   0  0  0  0  0  0  0  0  0  0  0  0
    3.7320   -1.9268    0.0000 C   0  0  0  0  0  0  0  0  0  0  0  0
    2.8660   -0.4268    0.0000 C   0  0  0  0  0  0  0  0  0  0  0  0
    4.5981   -0.4268    0.0000 C   0  0  0  0  0  0  0  0  0  0  0  0
    3.7320    1.0732    0.0000 C   0  0  0  0  0  0  0  0  0  0  0  0
    4.5981    1.5732    0.0000 C   0  0  0  0  0  0  0  0  0  0  0  0
    2.0000   -1.9268    0.0000 C   0  0  0  0  0  0  0  0  0  0  0  0
    5.4641   -1.9268    0.0000 C   0  0  0  0  0  0  0  0  0  0  0  0
    5.5116    1.1664    0.0000 C   0  0  0  0  0  0  0  0  0  0  0  0
    4.7026    2.5677    0.0000 C   0  0  0  0  0  0  0  0  0  0  0  0
    6.1808    1.9096    0.0000 C   0  0  0  0  0  0  0  0  0  0  0  0
    5.6808    2.7756    0.0000 C   0  0  0  0  0  0  0  0  0  0  0  0
    2.3291   -0.1168    0.0000 H   0  0  0  0  0  0  0  0  0  0  0  0
    5.1350   -0.1168    0.0000 H   0  0  0  0  0  0  0  0  0  0  0  0
    3.1951    1.3832    0.0000 H   0  0  0  0  0  0  0  0  0  0  0  0
    1.6900   -1.3899    0.0000 H   0  0  0  0  0  0  0  0  0  0  0  0
    1.4631   -2.2368    0.0000 H   0  0  0  0  0  0  0  0  0  0  0  0
    2.3100   -2.4638    0.0000 H   0  0  0  0  0  0  0  0  0  0  0  0
    5.1541   -2.4638    0.0000 H   0  0  0  0  0  0  0  0  0  0  0  0
    6.0010   -2.2368    0.0000 H   0  0  0  0  0  0  0  0  0  0  0  0
    5.7741   -1.3899    0.0000 H   0  0  0  0  0  0  0  0  0  0  0  0
    6.7974    1.8448    0.0000 H   0  0  0  0  0  0  0  0  0  0  0  0
    5.9329    3.3420    0.0000 H   0  0  0  0  0  0  0  0  0  0  0  0
    3.1951   -3.2368    0.0000 H   0  0  0  0  0  0  0  0  0  0  0  0
  1  7  1  0  0  0  0
  1 29  1  0  0  0  0
  2 14  2  0  0  0  0
  3 15  2  0  0  0  0
  4  8  2  0  0  0  0
  4  9  1  0  0  0  0
  4 10  1  0  0  0  0
  5  7  2  0  0  0  0
  5  8  1  0  0  0  0
  5 12  1  0  0  0  0
  6  7  1  0  0  0  0
  6  9  2  0  0  0  0
  6 13  1  0  0  0  0
  8 18  1  0  0  0  0
  9 19  1  0  0  0  0
 10 11  2  0  0  0  0
 10 20  1  0  0  0  0
 11 14  1  0  0  0  0
 11 15  1  0  0  0  0
 12 21  1  0  0  0  0
 12 22  1  0  0  0  0
 12 23  1  0  0  0  0
 13 24  1  0  0  0  0
 13 25  1  0  0  0  0
 13 26  1  0  0  0  0
 14 16  1  0  0  0  0
 15 17  1  0  0  0  0
 16 17  2  0  0  0  0
 16 27  1  0  0  0  0
 17 28  1  0  0  0  0
M  END
> <PUBCHEM_COMPOUND_CID>
6419746

> <PUBCHEM_COMPOUND_CANONICALIZED>
1

> <PUBCHEM_CACTVS_COMPLEXITY>
374

> <PUBCHEM_CACTVS_HBOND_ACCEPTOR>
3

> <PUBCHEM_CACTVS_HBOND_DONOR>
1

> <PUBCHEM_CACTVS_ROTATABLE_BOND>
1

> <PUBCHEM_CACTVS_SUBSKEYS>
AAADccBwMAAAAAAAAAAAAAAAAAAAAQAAAAAwAAAAAAAAAAABAAAAGgAACAAADASAmAAyBoAAAgCIAqBSAAACAAAgIAAIiAEECMgIJjKKERKAcAAkwBEImYeAwGAOIAACAAAIAABAAAQAABAAAAAAAAAAAA==

> <PUBCHEM_IUPAC_OPENEYE_NAME>
2-[(4-hydroxy-3,5-dimethyl-phenyl)methylene]cyclopent-4-ene-1,3-dione

> <PUBCHEM_IUPAC_CAS_NAME>
2-[(4-hydroxy-3,5-dimethylphenyl)methylidene]cyclopent-4-ene-1,3-dione

> <PUBCHEM_IUPAC_NAME>
2-[(4-hydroxy-3,5-dimethylphenyl)methylidene]cyclopent-4-ene-1,3-dione

> <PUBCHEM_IUPAC_SYSTEMATIC_NAME>
2-[(3,5-dimethyl-4-oxidanyl-phenyl)methylidene]cyclopent-4-ene-1,3-dione

> <PUBCHEM_IUPAC_TRADITIONAL_NAME>
2-(4-hydroxy-3,5-dimethyl-benzylidene)cyclopent-4-ene-1,3-quinone

> <PUBCHEM_IUPAC_INCHI>
InChI=1S/C14H12O3/c1-8-5-10(6-9(2)14(8)17)7-11-12(15)3-4-13(11)16/h3-7,17H,1-2H3

> <PUBCHEM_IUPAC_INCHIKEY>
YHWRISYBKMXSGJ-UHFFFAOYSA-N

> <PUBCHEM_XLOGP3_AA>
2.5

> <PUBCHEM_EXACT_MASS>
228.079

> <PUBCHEM_MOLECULAR_FORMULA>
C14H12O3

> <PUBCHEM_MOLECULAR_WEIGHT>
228.247

> <PUBCHEM_OPENEYE_CAN_SMILES>
CC1=CC(=CC(=C1O)C)C=C2C(=O)C=CC2=O

> <PUBCHEM_OPENEYE_ISO_SMILES>
CC1=CC(=CC(=C1O)C)C=C2C(=O)C=CC2=O

> <PUBCHEM_CACTVS_TPSA>
54.4

> <PUBCHEM_MONOISOTOPIC_WEIGHT>
228.079

> <PUBCHEM_TOTAL_CHARGE>
0

> <PUBCHEM_HEAVY_ATOM_COUNT>
17

> <PUBCHEM_ATOM_DEF_STEREO_COUNT>
0

> <PUBCHEM_ATOM_UDEF_STEREO_COUNT>
0

> <PUBCHEM_BOND_DEF_STEREO_COUNT>
0

> <PUBCHEM_BOND_UDEF_STEREO_COUNT>
0

> <PUBCHEM_ISOTOPIC_ATOM_COUNT>
0

> <PUBCHEM_COMPONENT_COUNT>
1

> <PUBCHEM_CACTVS_TAUTO_COUNT>
5

> <PUBCHEM_COORDINATE_TYPE>
1
5
255

> <PUBCHEM_BONDANNOTATIONS>
4  8  8
4  9  8
5  7  8
5  8  8
6  7  8
6  9  8

$$$$
6419747
  -OEChem-11021604552D

 40 43  0     0  0  0  0  0  0999 V2000
    3.4030   -0.5986    0.0000 S   0  0  0  0  0  0  0  0  0  0  0  0
    8.5309   -1.5986    0.0000 O   0  0  0  0  0  0  0  0  0  0  0  0
    2.9030   -1.4646    0.0000 O   0  0  0  0  0  0  0  0  0  0  0  0
    3.9030    0.2675    0.0000 O   0  0  0  0  0  0  0  0  0  0  0  0
    9.8365    0.1891    0.0000 N   0  0  0  0  0  0  0  0  0  0  0  0
    6.9473   -2.4033    0.0000 N   0  0  0  0  0  0  0  0  0  0  0  0
    2.5369   -0.0986    0.0000 N   0  0  0  0  0  0  0  0  0  0  0  0
    6.0010   -1.0986    0.0000 C   0  0  0  0  0  0  0  0  0  0  0  0
    6.9473   -0.7938    0.0000 C   0  0  0  0  0  0  0  0  0  0  0  0
    8.2364    0.3629    0.0000 C   0  0  0  0  0  0  0  0  0  0  0  0
    8.6415    1.2707    0.0000 C   0  0  0  0  0  0  0  0  0  0  0  0
    9.6357    1.1627    0.0000 C   0  0  0  0  0  0  0  0  0  0  0  0
    6.0010   -2.0986    0.0000 C   0  0  0  0  0  0  0  0  0  0  0  0
    7.2579    0.1567    0.0000 C   0  0  0  0  0  0  0  0  0  0  0  0
    8.9734   -0.3042    0.0000 C   0  0  0  0  0  0  0  0  0  0  0  0
    5.1350   -0.5986    0.0000 C   0  0  0  0  0  0  0  0  0  0  0  0
    7.5309   -1.5986    0.0000 C   0  0  0  0  0  0  0  0  0  0  0  0
    4.2690   -1.0986    0.0000 C   0  0  0  0  0  0  0  0  0  0  0  0
    5.1350   -2.5986    0.0000 C   0  0  0  0  0  0  0  0  0  0  0  0
    8.2380    2.1856    0.0000 C   0  0  0  0  0  0  0  0  0  0  0  0
    4.2690   -2.0986    0.0000 C   0  0  0  0  0  0  0  0  0  0  0  0
   10.2263    1.9697    0.0000 C   0  0  0  0  0  0  0  0  0  0  0  0
   10.7479   -0.2223    0.0000 C   0  0  0  0  0  0  0  0  0  0  0  0
    8.8286    2.9926    0.0000 C   0  0  0  0  0  0  0  0  0  0  0  0
    9.8227    2.8846    0.0000 C   0  0  0  0  0  0  0  0  0  0  0  0
    6.8439    0.6182    0.0000 H   0  0  0  0  0  0  0  0  0  0  0  0
    8.9065   -0.9206    0.0000 H   0  0  0  0  0  0  0  0  0  0  0  0
    5.1350    0.0214    0.0000 H   0  0  0  0  0  0  0  0  0  0  0  0
    7.1399   -2.9926    0.0000 H   0  0  0  0  0  0  0  0  0  0  0  0
    5.1350   -3.2186    0.0000 H   0  0  0  0  0  0  0  0  0  0  0  0
    7.6216    2.2526    0.0000 H   0  0  0  0  0  0  0  0  0  0  0  0
    3.7320   -2.4086    0.0000 H   0  0  0  0  0  0  0  0  0  0  0  0
   10.8427    1.9028    0.0000 H   0  0  0  0  0  0  0  0  0  0  0  0
   10.4928   -0.7874    0.0000 H   0  0  0  0  0  0  0  0  0  0  0  0
   11.3130   -0.4775    0.0000 H   0  0  0  0  0  0  0  0  0  0  0  0
   11.0030    0.3427    0.0000 H   0  0  0  0  0  0  0  0  0  0  0  0
    8.5783    3.5599    0.0000 H   0  0  0  0  0  0  0  0  0  0  0  0
   10.1889    3.3850    0.0000 H   0  0  0  0  0  0  0  0  0  0  0  0
    2.0000   -0.4086    0.0000 H   0  0  0  0  0  0  0  0  0  0  0  0
    2.5369    0.5214    0.0000 H   0  0  0  0  0  0  0  0  0  0  0  0
  1  3  2  0  0  0  0
  1  4  2  0  0  0  0
  1  7  1  0  0  0  0
  1 18  1  0  0  0  0
  2 17  2  0  0  0  0
  5 12  1  0  0  0  0
  5 15  1  0  0  0  0
  5 23  1  0  0  0  0
  6 13  1  0  0  0  0
  6 17  1  0  0  0  0
  6 29  1  0  0  0  0
  7 39  1  0  0  0  0
  7 40  1  0  0  0  0
  8  9  1  0  0  0  0
  8 13  2  0  0  0  0
  8 16  1  0  0  0  0
  9 14  2  0  0  0  0
  9 17  1  0  0  0  0
 10 11  1  0  0  0  0
 10 14  1  0  0  0  0
 10 15  2  0  0  0  0
 11 12  1  0  0  0  0
 11 20  2  0  0  0  0
 12 22  2  0  0  0  0
 13 19  1  0  0  0  0
 14 26  1  0  0  0  0
 15 27  1  0  0  0  0
 16 18  2  0  0  0  0
 16 28  1  0  0  0  0
 18 21  1  0  0  0  0
 19 21  2  0  0  0  0
 19 30  1  0  0  0  0
 20 24  1  0  0  0  0
 20 31  1  0  0  0  0
 21 32  1  0  0  0  0
 22 25  1  0  0  0  0
 22 33  1  0  0  0  0
 23 34  1  0  0  0  0
 23 35  1  0  0  0  0
 23 36  1  0  0  0  0
 24 25  2  0  0  0  0
 24 37  1  0  0  0  0
 25 38  1  0  0  0  0
M  END
> <PUBCHEM_COMPOUND_CID>
6419747

> <PUBCHEM_COMPOUND_CANONICALIZED>
1

> <PUBCHEM_CACTVS_COMPLEXITY>
684

> <PUBCHEM_CACTVS_HBOND_ACCEPTOR>
4

> <PUBCHEM_CACTVS_HBOND_DONOR>
2

> <PUBCHEM_CACTVS_ROTATABLE_BOND>
2

> <PUBCHEM_CACTVS_SUBSKEYS>
AAADccB7MABAAAAAAAAAAAAAAAAAAWLAAAAwYAAAAAAAAFgB9AAAHgQQQAAADAjB3gQ+wfPMEAKoAzV3VHDCgDAxAiAI2Dk4ZNgIIPLAlZGEIAhglADIyYcciMCOgAQAgAACAAAACAEAAAQAAAAAAAAAAA==

> <PUBCHEM_IUPAC_OPENEYE_NAME>
(3Z)-3-[(1-methylindol-3-yl)methylene]-2-oxo-indoline-5-sulfonamide

> <PUBCHEM_IUPAC_CAS_NAME>
(3Z)-3-[(1-methyl-3-indolyl)methylidene]-2-oxo-1H-indole-5-sulfonamide

> <PUBCHEM_IUPAC_NAME>
(3Z)-3-[(1-methylindol-3-yl)methylidene]-2-oxo-1H-indole-5-sulfonamide

> <PUBCHEM_IUPAC_SYSTEMATIC_NAME>
(3Z)-3-[(1-methylindol-3-yl)methylidene]-2-oxidanylidene-1H-indole-5-sulfonamide

> <PUBCHEM_IUPAC_TRADITIONAL_NAME>
(3Z)-2-keto-3-[(1-methylindol-3-yl)methylene]indoline-5-sulfonamide

> <PUBCHEM_IUPAC_INCHI>
InChI=1S/C18H15N3O3S/c1-21-10-11(13-4-2-3-5-17(13)21)8-15-14-9-12(25(19,23)24)6-7-16(14)20-18(15)22/h2-10H,1H3,(H,20,22)(H2,19,23,24)/b15-8-

> <PUBCHEM_IUPAC_INCHIKEY>
MLKHXLFEYOOYEY-NVNXTCNLSA-N

> <PUBCHEM_XLOGP3_AA>
1.5

> <PUBCHEM_EXACT_MASS>
353.083

> <PUBCHEM_MOLECULAR_FORMULA>
C18H15N3O3S

> <PUBCHEM_MOLECULAR_WEIGHT>
353.396

> <PUBCHEM_OPENEYE_CAN_SMILES>
CN1C=C(C2=CC=CC=C21)C=C3C4=C(C=CC(=C4)S(=O)(=O)N)NC3=O

> <PUBCHEM_OPENEYE_ISO_SMILES>
CN1C=C(C2=CC=CC=C21)/C=C\3/C4=C(C=CC(=C4)S(=O)(=O)N)NC3=O

> <PUBCHEM_CACTVS_TPSA>
103

> <PUBCHEM_MONOISOTOPIC_WEIGHT>
353.083

> <PUBCHEM_TOTAL_CHARGE>
0

> <PUBCHEM_HEAVY_ATOM_COUNT>
25

> <PUBCHEM_ATOM_DEF_STEREO_COUNT>
0

> <PUBCHEM_ATOM_UDEF_STEREO_COUNT>
0

> <PUBCHEM_BOND_DEF_STEREO_COUNT>
1

> <PUBCHEM_BOND_UDEF_STEREO_COUNT>
0

> <PUBCHEM_ISOTOPIC_ATOM_COUNT>
0

> <PUBCHEM_COMPONENT_COUNT>
1

> <PUBCHEM_CACTVS_TAUTO_COUNT>
3

> <PUBCHEM_COORDINATE_TYPE>
1
5
255

> <PUBCHEM_BONDANNOTATIONS>
10  11  8
10  15  8
11  12  8
11  20  8
12  22  8
13  19  8
16  18  8
18  21  8
19  21  8
20  24  8
22  25  8
24  25  8
5  12  8
5  15  8
8  13  8
8  16  8

$$$$
6419748
  -OEChem-11021604552D

 61 68  0     1  0  0  0  0  0999 V2000
    7.7141    2.8707    0.0000 O   0  0  0  0  0  0  0  0  0  0  0  0
    9.9489   -1.1211    0.0000 O   0  0  0  0  0  0  0  0  0  0  0  0
    2.0000   -0.0099    0.0000 O   0  0  0  0  0  0  0  0  0  0  0  0
    6.8258   -0.4438    0.0000 N   0  0  0  0  0  0  0  0  0  0  0  0
    5.8258    1.2882    0.0000 N   0  0  0  0  0  0  0  0  0  0  0  0
   11.6396    0.2480    0.0000 N   0  0  0  0  0  0  0  0  0  0  0  0
    2.6370   -1.7076    0.0000 N   0  0  0  0  0  0  0  0  0  0  0  0
    8.1919    0.9222    0.0000 C   0  0  3  0  0  0  0  0  0  0  0  0
    9.8966   -0.1225    0.0000 C   0  0  1  0  0  0  0  0  0  0  0  0
    8.4507    1.8881    0.0000 C   0  0  1  0  0  0  0  0  0  0  0  0
   10.6737    0.5069    0.0000 C   0  0  1  0  0  0  0  0  0  0  0  0
   10.3153    1.4404    0.0000 C   0  0  0  0  0  0  0  0  0  0  0  0
    5.8258   -0.4438    0.0000 C   0  0  0  0  0  0  0  0  0  0  0  0
    5.3258    0.4222    0.0000 C   0  0  0  0  0  0  0  0  0  0  0  0
    5.3190   -1.3538    0.0000 C   0  0  0  0  0  0  0  0  0  0  0  0
    4.2843    0.4382    0.0000 C   0  0  0  0  0  0  0  0  0  0  0  0
    6.9718   -1.4269    0.0000 C   0  0  0  0  0  0  0  0  0  0  0  0
    7.9330   -0.0437    0.0000 C   0  0  0  0  0  0  0  0  0  0  0  0
    5.0475    1.9061    0.0000 C   0  0  0  0  0  0  0  0  0  0  0  0
    6.1211   -1.9406    0.0000 C   0  0  0  0  0  0  0  0  0  0  0  0
    4.2774   -1.3619    0.0000 C   0  0  0  0  0  0  0  0  0  0  0  0
    3.7566   -0.4598    0.0000 C   0  0  0  0  0  0  0  0  0  0  0  0
    4.1772    1.4263    0.0000 C   0  0  0  0  0  0  0  0  0  0  0  0
    3.5825   -2.1296    0.0000 C   0  0  0  0  0  0  0  0  0  0  0  0
    7.8859   -1.9127    0.0000 C   0  0  0  0  0  0  0  0  0  0  0  0
    2.7443   -0.6777    0.0000 C   0  0  0  0  0  0  0  0  0  0  0  0
    6.1255   -2.9758    0.0000 C   0  0  0  0  0  0  0  0  0  0  0  0
    5.0838    2.9407    0.0000 C   0  0  0  0  0  0  0  0  0  0  0  0
    3.2829    1.9477    0.0000 C   0  0  0  0  0  0  0  0  0  0  0  0
   12.3467    0.9551    0.0000 C   0  0  0  0  0  0  0  0  0  0  0  0
   10.8399   -1.5751    0.0000 C   0  0  0  0  0  0  0  0  0  0  0  0
    7.9143   -2.9475    0.0000 C   0  0  0  0  0  0  0  0  0  0  0  0
    7.0281   -3.4826    0.0000 C   0  0  0  0  0  0  0  0  0  0  0  0
    4.2018    3.4826    0.0000 C   0  0  0  0  0  0  0  0  0  0  0  0
    3.2953    2.9828    0.0000 C   0  0  0  0  0  0  0  0  0  0  0  0
   10.4630   -0.3746    0.0000 H   0  0  0  0  0  0  0  0  0  0  0  0
    8.6707    2.7091    0.0000 H   0  0  0  0  0  0  0  0  0  0  0  0
   10.8026   -0.0996    0.0000 H   0  0  0  0  0  0  0  0  0  0  0  0
   10.9268    1.5428    0.0000 H   0  0  0  0  0  0  0  0  0  0  0  0
   10.3370    2.0601    0.0000 H   0  0  0  0  0  0  0  0  0  0  0  0
    7.3342    0.1167    0.0000 H   0  0  0  0  0  0  0  0  0  0  0  0
    7.7726   -0.6426    0.0000 H   0  0  0  0  0  0  0  0  0  0  0  0
    8.5319   -0.2042    0.0000 H   0  0  0  0  0  0  0  0  0  0  0  0
   11.8001   -0.3508    0.0000 H   0  0  0  0  0  0  0  0  0  0  0  0
    3.2718   -2.6661    0.0000 H   0  0  0  0  0  0  0  0  0  0  0  0
    4.0834   -2.4950    0.0000 H   0  0  0  0  0  0  0  0  0  0  0  0
    8.4129   -1.5861    0.0000 H   0  0  0  0  0  0  0  0  0  0  0  0
    5.5911   -3.2902    0.0000 H   0  0  0  0  0  0  0  0  0  0  0  0
    5.6302    3.2338    0.0000 H   0  0  0  0  0  0  0  0  0  0  0  0
    2.1000   -2.0176    0.0000 H   0  0  0  0  0  0  0  0  0  0  0  0
    2.7435    1.6421    0.0000 H   0  0  0  0  0  0  0  0  0  0  0  0
   12.7851    0.5167    0.0000 H   0  0  0  0  0  0  0  0  0  0  0  0
   12.7851    1.3936    0.0000 H   0  0  0  0  0  0  0  0  0  0  0  0
   11.9083    1.3936    0.0000 H   0  0  0  0  0  0  0  0  0  0  0  0
   10.5584   -2.1275    0.0000 H   0  0  0  0  0  0  0  0  0  0  0  0
   11.3923   -1.8566    0.0000 H   0  0  0  0  0  0  0  0  0  0  0  0
   11.1214   -1.0227    0.0000 H   0  0  0  0  0  0  0  0  0  0  0  0
    8.4584   -3.2448    0.0000 H   0  0  0  0  0  0  0  0  0  0  0  0
    7.0380   -4.1026    0.0000 H   0  0  0  0  0  0  0  0  0  0  0  0
    4.2164    4.1025    0.0000 H   0  0  0  0  0  0  0  0  0  0  0  0
    2.7634    3.3013    0.0000 H   0  0  0  0  0  0  0  0  0  0  0  0
  1  8  1  0  0  0  0
  1 10  1  0  0  0  0
  9  2  1  1  0  0  0
  2 31  1  0  0  0  0
  3 26  2  0  0  0  0
  4  8  1  0  0  0  0
  4 13  1  0  0  0  0
  4 17  1  0  0  0  0
  5 10  1  0  0  0  0
  5 14  1  0  0  0  0
  5 19  1  0  0  0  0
 11  6  1  1  0  0  0
  6 30  1  0  0  0  0
  6 44  1  0  0  0  0
  7 24  1  0  0  0  0
  7 26  1  0  0  0  0
  7 50  1  0  0  0  0
  8  9  1  0  0  0  0
  8 18  1  0  0  0  0
  9 11  1  0  0  0  0
  9 36  1  0  0  0  0
 10 12  1  0  0  0  0
 10 37  1  1  0  0  0
 11 12  1  0  0  0  0
 11 38  1  0  0  0  0
 12 39  1  0  0  0  0
 12 40  1  0  0  0  0
 13 14  2  0  0  0  0
 13 15  1  0  0  0  0
 14 16  1  0  0  0  0
 15 20  1  0  0  0  0
 15 21  2  0  0  0  0
 16 22  2  0  0  0  0
 16 23  1  0  0  0  0
 17 20  1  0  0  0  0
 17 25  2  0  0  0  0
 18 41  1  0  0  0  0
 18 42  1  0  0  0  0
 18 43  1  0  0  0  0
 19 23  1  0  0  0  0
 19 28  2  0  0  0  0
 20 27  2  0  0  0  0
 21 22  1  0  0  0  0
 21 24  1  0  0  0  0
 22 26  1  0  0  0  0
 23 29  2  0  0  0  0
 24 45  1  0  0  0  0
 24 46  1  0  0  0  0
 25 32  1  0  0  0  0
 25 47  1  0  0  0  0
 27 33  1  0  0  0  0
 27 48  1  0  0  0  0
 28 34  1  0  0  0  0
 28 49  1  0  0  0  0
 29 35  1  0  0  0  0
 29 51  1  0  0  0  0
 30 52  1  0  0  0  0
 30 53  1  0  0  0  0
 30 54  1  0  0  0  0
 31 55  1  0  0  0  0
 31 56  1  0  0  0  0
 31 57  1  0  0  0  0
 32 33  2  0  0  0  0
 32 58  1  0  0  0  0
 33 59  1  0  0  0  0
 34 35  2  0  0  0  0
 34 60  1  0  0  0  0
 35 61  1  0  0  0  0
M  END
> <PUBCHEM_COMPOUND_CID>
6419748

> <PUBCHEM_COMPOUND_CANONICALIZED>
1

> <PUBCHEM_CACTVS_COMPLEXITY>
901

> <PUBCHEM_CACTVS_HBOND_ACCEPTOR>
4

> <PUBCHEM_CACTVS_HBOND_DONOR>
2

> <PUBCHEM_CACTVS_ROTATABLE_BOND>
2

> <PUBCHEM_CACTVS_SUBSKEYS>
AAADceB7sAAAAAAAAAAAAAAAAAAAAWLFgAA0YMEABYAAAFix/gAAHgAQAAAADDzhngYywPPMFACoAyVyVACCgCQlEiAI2KE4dNgLYPLA1ZGfIQhmlgDayQf82cOeyAACQAASACCQAASAACQAQAAAAAAAAA==

> <PUBCHEM_IUPAC_INCHI>
InChI=1S/C28H26N4O3/c1-28-26(34-3)17(29-2)12-20(35-28)31-18-10-6-4-8-14(18)22-23-16(13-30-27(23)33)21-15-9-5-7-11-19(15)32(28)25(21)24(22)31/h4-11,17,20,26,29H,12-13H2,1-3H3,(H,30,33)/t17-,20-,26-,28?/m1/s1

> <PUBCHEM_IUPAC_INCHIKEY>
HKSZLNNOFSGOKW-UUUCIFKISA-N

> <PUBCHEM_XLOGP3_AA>
3.2

> <PUBCHEM_EXACT_MASS>
466.2

> <PUBCHEM_MOLECULAR_FORMULA>
C28H26N4O3

> <PUBCHEM_MOLECULAR_WEIGHT>
466.541

> <PUBCHEM_OPENEYE_CAN_SMILES>
CC12C(C(CC(O1)N3C4=CC=CC=C4C5=C6C(=C7C8=CC=CC=C8N2C7=C53)CNC6=O)NC)OC

> <PUBCHEM_OPENEYE_ISO_SMILES>
CC12[C@@H]([C@@H](C[C@@H](O1)N3C4=CC=CC=C4C5=C6C(=C7C8=CC=CC=C8N2C7=C53)CNC6=O)NC)OC

> <PUBCHEM_CACTVS_TPSA>
69.4

> <PUBCHEM_MONOISOTOPIC_WEIGHT>
466.2

> <PUBCHEM_TOTAL_CHARGE>
0

> <PUBCHEM_HEAVY_ATOM_COUNT>
35

> <PUBCHEM_ATOM_DEF_STEREO_COUNT>
3

> <PUBCHEM_ATOM_UDEF_STEREO_COUNT>
1

> <PUBCHEM_BOND_DEF_STEREO_COUNT>
0

> <PUBCHEM_BOND_UDEF_STEREO_COUNT>
0

> <PUBCHEM_ISOTOPIC_ATOM_COUNT>
0

> <PUBCHEM_COMPONENT_COUNT>
1

> <PUBCHEM_CACTVS_TAUTO_COUNT>
2

> <PUBCHEM_COORDINATE_TYPE>
1
5
255

> <PUBCHEM_BONDANNOTATIONS>
10  37  5
13  14  8
13  15  8
14  16  8
15  20  8
15  21  8
16  22  8
16  23  8
17  20  8
17  25  8
19  23  8
19  28  8
9  2  5
20  27  8
21  22  8
23  29  8
25  32  8
27  33  8
28  34  8
29  35  8
32  33  8
34  35  8
4  13  8
4  17  8
5  14  8
5  19  8
11  6  5
8  18  3

$$$$
5289419
  -OEChem-11021604552D

 29 31  0     0  0  0  0  0  0999 V2000
    2.8660   -0.0089    0.0000 O   0  0  0  0  0  0  0  0  0  0  0  0
    7.9939   -1.0089    0.0000 O   0  0  0  0  0  0  0  0  0  0  0  0
    6.4103   -1.8136    0.0000 N   0  0  0  0  0  0  0  0  0  0  0  0
    8.1078    1.8654    0.0000 N   0  0  0  0  0  0  0  0  0  0  0  0
    9.3084    0.7807    0.0000 N   0  0  0  0  0  0  0  0  0  0  0  0
    5.4641   -0.5089    0.0000 C   0  0  0  0  0  0  0  0  0  0  0  0
    5.4641   -1.5089    0.0000 C   0  0  0  0  0  0  0  0  0  0  0  0
    6.4103   -0.2041    0.0000 C   0  0  0  0  0  0  0  0  0  0  0  0
    6.9939   -1.0089    0.0000 C   0  0  0  0  0  0  0  0  0  0  0  0
    4.5981   -0.0089    0.0000 C   0  0  0  0  0  0  0  0  0  0  0  0
    4.5981   -2.0089    0.0000 C   0  0  0  0  0  0  0  0  0  0  0  0
    6.7210    0.7464    0.0000 C   0  0  0  0  0  0  0  0  0  0  0  0
    3.7320   -0.5089    0.0000 C   0  0  0  0  0  0  0  0  0  0  0  0
    3.7320   -1.5089    0.0000 C   0  0  0  0  0  0  0  0  0  0  0  0
    7.6995    0.9526    0.0000 C   0  0  0  0  0  0  0  0  0  0  0  0
    8.4415    0.2822    0.0000 C   0  0  0  0  0  0  0  0  0  0  0  0
    9.1022    1.7592    0.0000 C   0  0  0  0  0  0  0  0  0  0  0  0
    2.0000   -0.5089    0.0000 C   0  0  0  0  0  0  0  0  0  0  0  0
    6.6029   -2.4029    0.0000 H   0  0  0  0  0  0  0  0  0  0  0  0
    4.5981    0.6111    0.0000 H   0  0  0  0  0  0  0  0  0  0  0  0
    4.5981   -2.6289    0.0000 H   0  0  0  0  0  0  0  0  0  0  0  0
    6.3069    1.2079    0.0000 H   0  0  0  0  0  0  0  0  0  0  0  0
    3.1951   -1.8189    0.0000 H   0  0  0  0  0  0  0  0  0  0  0  0
    7.7987    2.4029    0.0000 H   0  0  0  0  0  0  0  0  0  0  0  0
    8.3756   -0.3343    0.0000 H   0  0  0  0  0  0  0  0  0  0  0  0
    9.5178    2.2192    0.0000 H   0  0  0  0  0  0  0  0  0  0  0  0
    1.6900    0.0281    0.0000 H   0  0  0  0  0  0  0  0  0  0  0  0
    1.4631   -0.8189    0.0000 H   0  0  0  0  0  0  0  0  0  0  0  0
    2.3100   -1.0458    0.0000 H   0  0  0  0  0  0  0  0  0  0  0  0
  1 13  1  0  0  0  0
  1 18  1  0  0  0  0
  2  9  2  0  0  0  0
  3  7  1  0  0  0  0
  3  9  1  0  0  0  0
  3 19  1  0  0  0  0
  4 15  1  0  0  0  0
  4 17  1  0  0  0  0
  4 24  1  0  0  0  0
  5 16  1  0  0  0  0
  5 17  2  0  0  0  0
  6  7  2  0  0  0  0
  6  8  1  0  0  0  0
  6 10  1  0  0  0  0
  7 11  1  0  0  0  0
  8  9  1  0  0  0  0
  8 12  2  0  0  0  0
 10 13  2  0  0  0  0
 10 20  1  0  0  0  0
 11 14  2  0  0  0  0
 11 21  1  0  0  0  0
 12 15  1  0  0  0  0
 12 22  1  0  0  0  0
 13 14  1  0  0  0  0
 14 23  1  0  0  0  0
 15 16  2  0  0  0  0
 16 25  1  0  0  0  0
 17 26  1  0  0  0  0
 18 27  1  0  0  0  0
 18 28  1  0  0  0  0
 18 29  1  0  0  0  0
M  END
> <PUBCHEM_COMPOUND_CID>
5289419

> <PUBCHEM_COMPOUND_CANONICALIZED>
1

> <PUBCHEM_CACTVS_COMPLEXITY>
369

> <PUBCHEM_CACTVS_HBOND_ACCEPTOR>
3

> <PUBCHEM_CACTVS_HBOND_DONOR>
2

> <PUBCHEM_CACTVS_ROTATABLE_BOND>
2

> <PUBCHEM_CACTVS_SUBSKEYS>
AAADccBzMAAAAAAAAAAAAAAAAAAAAWLAAAAwAAAAAAAAAFgBwAAAHgAQAAAADAzBngY/1pbJlACoAzV3dACCiC2xMqAJ2YE+fNiMbjLEvZuUMChs1BPI6ae83LLOAEABAAACAAAAgAIAAAQAAAAAAAAAAA==

> <PUBCHEM_IUPAC_OPENEYE_NAME>
(3Z)-3-(1H-imidazol-5-ylmethylene)-5-methoxy-indolin-2-one

> <PUBCHEM_IUPAC_CAS_NAME>
(3Z)-3-(1H-imidazol-5-ylmethylidene)-5-methoxy-1H-indol-2-one

> <PUBCHEM_IUPAC_NAME>
(3Z)-3-(1H-imidazol-5-ylmethylidene)-5-methoxy-1H-indol-2-one

> <PUBCHEM_IUPAC_SYSTEMATIC_NAME>
(3Z)-3-(1H-imidazol-5-ylmethylidene)-5-methoxy-1H-indol-2-one

> <PUBCHEM_IUPAC_TRADITIONAL_NAME>
(3Z)-3-(1H-imidazol-5-ylmethylene)-5-methoxy-oxindole

> <PUBCHEM_IUPAC_INCHI>
InChI=1S/C13H11N3O2/c1-18-9-2-3-12-10(5-9)11(13(17)16-12)4-8-6-14-7-15-8/h2-7H,1H3,(H,14,15)(H,16,17)/b11-4-

> <PUBCHEM_IUPAC_INCHIKEY>
QNUKRWAIZMBVCU-WCIBSUBMSA-N

> <PUBCHEM_XLOGP3_AA>
1

> <PUBCHEM_EXACT_MASS>
241.085

> <PUBCHEM_MOLECULAR_FORMULA>
C13H11N3O2

> <PUBCHEM_MOLECULAR_WEIGHT>
241.25

> <PUBCHEM_OPENEYE_CAN_SMILES>
COC1=CC2=C(C=C1)NC(=O)C2=CC3=CN=CN3

> <PUBCHEM_OPENEYE_ISO_SMILES>
COC1=CC\2=C(C=C1)NC(=O)/C2=C\C3=CN=CN3

> <PUBCHEM_CACTVS_TPSA>
67

> <PUBCHEM_MONOISOTOPIC_WEIGHT>
241.085

> <PUBCHEM_TOTAL_CHARGE>
0

> <PUBCHEM_HEAVY_ATOM_COUNT>
18

> <PUBCHEM_ATOM_DEF_STEREO_COUNT>
0

> <PUBCHEM_ATOM_UDEF_STEREO_COUNT>
0

> <PUBCHEM_BOND_DEF_STEREO_COUNT>
1

> <PUBCHEM_BOND_UDEF_STEREO_COUNT>
0

> <PUBCHEM_ISOTOPIC_ATOM_COUNT>
0

> <PUBCHEM_COMPONENT_COUNT>
1

> <PUBCHEM_CACTVS_TAUTO_COUNT>
9

> <PUBCHEM_COORDINATE_TYPE>
1
5
255

> <PUBCHEM_BONDANNOTATIONS>
10  13  8
11  14  8
13  14  8
15  16  8
4  15  8
4  17  8
5  16  8
5  17  8
6  10  8
6  7  8
7  11  8

$$$$
5329103
  -OEChem-11021604552D

 56 58  0     0  0  0  0  0  0999 V2000
    2.0000   -1.4372    0.0000 Cl  0  0  0  0  0  0  0  0  0  0  0  0
    8.5992    2.0245    0.0000 O   0  0  0  0  0  0  0  0  0  0  0  0
    7.1279   -2.4372    0.0000 O   0  0  0  0  0  0  0  0  0  0  0  0
   12.2029    2.1376    0.0000 N   0  0  0  0  0  0  0  0  0  0  0  0
    7.5754   -1.1461    0.0000 N   0  0  0  0  0  0  0  0  0  0  0  0
    9.8843    0.8633    0.0000 N   0  0  0  0  0  0  0  0  0  0  0  0
    5.5443   -3.2419    0.0000 N   0  0  0  0  0  0  0  0  0  0  0  0
   11.5325    1.3957    0.0000 C   0  0  0  0  0  0  0  0  0  0  0  0
    8.2361    0.3309    0.0000 C   0  0  0  0  0  0  0  0  0  0  0  0
    7.2418    0.4371    0.0000 C   0  0  0  0  0  0  0  0  0  0  0  0
    6.8335   -0.4757    0.0000 C   0  0  0  0  0  0  0  0  0  0  0  0
   10.5547    1.6053    0.0000 C   0  0  0  0  0  0  0  0  0  0  0  0
    8.4423   -0.6476    0.0000 C   0  0  0  0  0  0  0  0  0  0  0  0
   13.1807    1.9280    0.0000 C   0  0  0  0  0  0  0  0  0  0  0  0
   11.8956    3.0892    0.0000 C   0  0  0  0  0  0  0  0  0  0  0  0
    8.9065    1.0729    0.0000 C   0  0  0  0  0  0  0  0  0  0  0  0
    5.5443   -1.6324    0.0000 C   0  0  0  0  0  0  0  0  0  0  0  0
    5.8550   -0.6819    0.0000 C   0  0  0  0  0  0  0  0  0  0  0  0
    4.5981   -1.9372    0.0000 C   0  0  0  0  0  0  0  0  0  0  0  0
    6.7433    1.3040    0.0000 C   0  0  0  0  0  0  0  0  0  0  0  0
    4.5981   -2.9372    0.0000 C   0  0  0  0  0  0  0  0  0  0  0  0
    9.3552   -1.0559    0.0000 C   0  0  0  0  0  0  0  0  0  0  0  0
    6.1279   -2.4372    0.0000 C   0  0  0  0  0  0  0  0  0  0  0  0
   13.8511    2.6700    0.0000 C   0  0  0  0  0  0  0  0  0  0  0  0
   12.5660    3.8312    0.0000 C   0  0  0  0  0  0  0  0  0  0  0  0
    3.7320   -1.4372    0.0000 C   0  0  0  0  0  0  0  0  0  0  0  0
    3.7320   -3.4372    0.0000 C   0  0  0  0  0  0  0  0  0  0  0  0
    2.8660   -1.9372    0.0000 C   0  0  0  0  0  0  0  0  0  0  0  0
    2.8660   -2.9372    0.0000 C   0  0  0  0  0  0  0  0  0  0  0  0
   11.2993    0.8212    0.0000 H   0  0  0  0  0  0  0  0  0  0  0  0
   12.0577    1.0662    0.0000 H   0  0  0  0  0  0  0  0  0  0  0  0
   10.7880    2.1797    0.0000 H   0  0  0  0  0  0  0  0  0  0  0  0
   10.0295    1.9347    0.0000 H   0  0  0  0  0  0  0  0  0  0  0  0
    7.5096   -1.7626    0.0000 H   0  0  0  0  0  0  0  0  0  0  0  0
   12.9475    1.3536    0.0000 H   0  0  0  0  0  0  0  0  0  0  0  0
   13.7059    1.5986    0.0000 H   0  0  0  0  0  0  0  0  0  0  0  0
   11.5147    3.5785    0.0000 H   0  0  0  0  0  0  0  0  0  0  0  0
   11.3476    2.7991    0.0000 H   0  0  0  0  0  0  0  0  0  0  0  0
    5.4409   -0.2204    0.0000 H   0  0  0  0  0  0  0  0  0  0  0  0
   10.0749    0.2733    0.0000 H   0  0  0  0  0  0  0  0  0  0  0  0
    7.2808    1.6131    0.0000 H   0  0  0  0  0  0  0  0  0  0  0  0
    6.4342    1.8415    0.0000 H   0  0  0  0  0  0  0  0  0  0  0  0
    6.2058    0.9950    0.0000 H   0  0  0  0  0  0  0  0  0  0  0  0
    9.1020   -1.6219    0.0000 H   0  0  0  0  0  0  0  0  0  0  0  0
    9.9211   -1.3091    0.0000 H   0  0  0  0  0  0  0  0  0  0  0  0
    9.6083   -0.4900    0.0000 H   0  0  0  0  0  0  0  0  0  0  0  0
   13.0260    3.4156    0.0000 H   0  0  0  0  0  0  0  0  0  0  0  0
   12.9816    4.2912    0.0000 H   0  0  0  0  0  0  0  0  0  0  0  0
   12.1060    4.2469    0.0000 H   0  0  0  0  0  0  0  0  0  0  0  0
   14.3112    2.2544    0.0000 H   0  0  0  0  0  0  0  0  0  0  0  0
   14.2668    3.1301    0.0000 H   0  0  0  0  0  0  0  0  0  0  0  0
   13.3911    3.0857    0.0000 H   0  0  0  0  0  0  0  0  0  0  0  0
    5.7369   -3.8312    0.0000 H   0  0  0  0  0  0  0  0  0  0  0  0
    3.7320   -0.8172    0.0000 H   0  0  0  0  0  0  0  0  0  0  0  0
    3.7320   -4.0572    0.0000 H   0  0  0  0  0  0  0  0  0  0  0  0
    2.3291   -3.2472    0.0000 H   0  0  0  0  0  0  0  0  0  0  0  0
  1 28  1  0  0  0  0
  2 16  2  0  0  0  0
  3 23  2  0  0  0  0
  4  8  1  0  0  0  0
  4 14  1  0  0  0  0
  4 15  1  0  0  0  0
  5 11  1  0  0  0  0
  5 13  1  0  0  0  0
  5 34  1  0  0  0  0
  6 12  1  0  0  0  0
  6 16  1  0  0  0  0
  6 40  1  0  0  0  0
  7 21  1  0  0  0  0
  7 23  1  0  0  0  0
  7 53  1  0  0  0  0
  8 12  1  0  0  0  0
  8 30  1  0  0  0  0
  8 31  1  0  0  0  0
  9 10  1  0  0  0  0
  9 13  2  0  0  0  0
  9 16  1  0  0  0  0
 10 11  2  0  0  0  0
 10 20  1  0  0  0  0
 11 18  1  0  0  0  0
 12 32  1  0  0  0  0
 12 33  1  0  0  0  0
 13 22  1  0  0  0  0
 14 24  1  0  0  0  0
 14 35  1  0  0  0  0
 14 36  1  0  0  0  0
 15 25  1  0  0  0  0
 15 37  1  0  0  0  0
 15 38  1  0  0  0  0
 17 18  2  0  0  0  0
 17 19  1  0  0  0  0
 17 23  1  0  0  0  0
 18 39  1  0  0  0  0
 19 21  2  0  0  0  0
 19 26  1  0  0  0  0
 20 41  1  0  0  0  0
 20 42  1  0  0  0  0
 20 43  1  0  0  0  0
 21 27  1  0  0  0  0
 22 44  1  0  0  0  0
 22 45  1  0  0  0  0
 22 46  1  0  0  0  0
 24 50  1  0  0  0  0
 24 51  1  0  0  0  0
 24 52  1  0  0  0  0
 25 47  1  0  0  0  0
 25 48  1  0  0  0  0
 25 49  1  0  0  0  0
 26 28  2  0  0  0  0
 26 54  1  0  0  0  0
 27 29  2  0  0  0  0
 27 55  1  0  0  0  0
 28 29  1  0  0  0  0
 29 56  1  0  0  0  0
M  END
> <PUBCHEM_COMPOUND_CID>
5329103

> <PUBCHEM_COMPOUND_CANONICALIZED>
1

> <PUBCHEM_CACTVS_COMPLEXITY>
636

> <PUBCHEM_CACTVS_HBOND_ACCEPTOR>
3

> <PUBCHEM_CACTVS_HBOND_DONOR>
3

> <PUBCHEM_CACTVS_ROTATABLE_BOND>
7

> <PUBCHEM_CACTVS_SUBSKEYS>
AAADceB7sAAEAAAAAAAAAAAAAAAAAWLAAAAwAAAAAAAAAFgBwAAAHgIQAAAADArBniQywJPJkACoAyVyVACCgCAlByAImaE4ZtgIYHrB15GUIYhglgDIyccciICOgABAIAACAAAAAIBAAAQAAAAAAAAAAA==

> <PUBCHEM_IUPAC_OPENEYE_NAME>
5-[(Z)-(5-chloro-2-oxo-indolin-3-ylidene)methyl]-N-[2-(diethylamino)ethyl]-2,4-dimethyl-1H-pyrrole-3-carboxamide

> <PUBCHEM_IUPAC_CAS_NAME>
5-[(Z)-(5-chloro-2-oxo-1H-indol-3-ylidene)methyl]-N-[2-(diethylamino)ethyl]-2,4-dimethyl-1H-pyrrole-3-carboxamide

> <PUBCHEM_IUPAC_NAME>
5-[(Z)-(5-chloro-2-oxo-1H-indol-3-ylidene)methyl]-N-[2-(diethylamino)ethyl]-2,4-dimethyl-1H-pyrrole-3-carboxamide

> <PUBCHEM_IUPAC_SYSTEMATIC_NAME>
5-[(Z)-(5-chloranyl-2-oxidanylidene-1H-indol-3-ylidene)methyl]-N-[2-(diethylamino)ethyl]-2,4-dimethyl-1H-pyrrole-3-carboxamide

> <PUBCHEM_IUPAC_TRADITIONAL_NAME>
5-[(Z)-(5-chloro-2-keto-indolin-3-ylidene)methyl]-N-[2-(diethylamino)ethyl]-2,4-dimethyl-1H-pyrrole-3-carboxamide

> <PUBCHEM_IUPAC_INCHI>
InChI=1S/C22H27ClN4O2/c1-5-27(6-2)10-9-24-22(29)20-13(3)19(25-14(20)4)12-17-16-11-15(23)7-8-18(16)26-21(17)28/h7-8,11-12,25H,5-6,9-10H2,1-4H3,(H,24,29)(H,26,28)/b17-12-

> <PUBCHEM_IUPAC_INCHIKEY>
XPLJEFSRINKZLC-ATVHPVEESA-N

> <PUBCHEM_XLOGP3_AA>
3.2

> <PUBCHEM_EXACT_MASS>
414.182

> <PUBCHEM_MOLECULAR_FORMULA>
C22H27ClN4O2

> <PUBCHEM_MOLECULAR_WEIGHT>
414.934

> <PUBCHEM_OPENEYE_CAN_SMILES>
CCN(CC)CCNC(=O)C1=C(NC(=C1C)C=C2C3=C(C=CC(=C3)Cl)NC2=O)C

> <PUBCHEM_OPENEYE_ISO_SMILES>
CCN(CC)CCNC(=O)C1=C(NC(=C1C)/C=C\2/C3=C(C=CC(=C3)Cl)NC2=O)C

> <PUBCHEM_CACTVS_TPSA>
77.2

> <PUBCHEM_MONOISOTOPIC_WEIGHT>
414.182

> <PUBCHEM_TOTAL_CHARGE>
0

> <PUBCHEM_HEAVY_ATOM_COUNT>
29

> <PUBCHEM_ATOM_DEF_STEREO_COUNT>
0

> <PUBCHEM_ATOM_UDEF_STEREO_COUNT>
0

> <PUBCHEM_BOND_DEF_STEREO_COUNT>
1

> <PUBCHEM_BOND_UDEF_STEREO_COUNT>
0

> <PUBCHEM_ISOTOPIC_ATOM_COUNT>
0

> <PUBCHEM_COMPONENT_COUNT>
1

> <PUBCHEM_CACTVS_TAUTO_COUNT>
53

> <PUBCHEM_COORDINATE_TYPE>
1
5
255

> <PUBCHEM_BONDANNOTATIONS>
10  11  8
19  21  8
19  26  8
21  27  8
26  28  8
27  29  8
28  29  8
5  11  8
5  13  8
9  10  8
9  13  8

$$$$
6419750
  -OEChem-11021604552D

 45 52  0     1  0  0  0  0  0999 V2000
    7.7141    2.8707    0.0000 O   0  0  0  0  0  0  0  0  0  0  0  0
    2.0000   -0.0099    0.0000 O   0  0  0  0  0  0  0  0  0  0  0  0
    3.7888   -3.1081    0.0000 O   0  0  0  0  0  0  0  0  0  0  0  0
    5.8258    1.2882    0.0000 N   0  0  0  0  0  0  0  0  0  0  0  0
    6.8258   -0.4438    0.0000 N   0  0  0  0  0  0  0  0  0  0  0  0
    2.6370   -1.7076    0.0000 N   0  0  0  0  0  0  0  0  0  0  0  0
    8.4507    1.8881    0.0000 C   0  0  3  0  0  0  0  0  0  0  0  0
    8.1919    0.9222    0.0000 C   0  0  2  0  0  0  0  0  0  0  0  0
    5.3258    0.4222    0.0000 C   0  0  0  0  0  0  0  0  0  0  0  0
    5.8258   -0.4438    0.0000 C   0  0  0  0  0  0  0  0  0  0  0  0
   10.2826    1.1293    0.0000 C   0  0  0  0  0  0  0  0  0  0  0  0
   10.0238    0.1634    0.0000 C   0  0  0  0  0  0  0  0  0  0  0  0
    4.2843    0.4382    0.0000 C   0  0  0  0  0  0  0  0  0  0  0  0
    5.3190   -1.3538    0.0000 C   0  0  0  0  0  0  0  0  0  0  0  0
    5.0475    1.9061    0.0000 C   0  0  0  0  0  0  0  0  0  0  0  0
    6.9718   -1.4269    0.0000 C   0  0  0  0  0  0  0  0  0  0  0  0
    4.1772    1.4263    0.0000 C   0  0  0  0  0  0  0  0  0  0  0  0
    6.1211   -1.9406    0.0000 C   0  0  0  0  0  0  0  0  0  0  0  0
    3.7566   -0.4598    0.0000 C   0  0  0  0  0  0  0  0  0  0  0  0
    4.2774   -1.3619    0.0000 C   0  0  0  0  0  0  0  0  0  0  0  0
    5.0838    2.9407    0.0000 C   0  0  0  0  0  0  0  0  0  0  0  0
    7.8859   -1.9127    0.0000 C   0  0  0  0  0  0  0  0  0  0  0  0
    2.7443   -0.6777    0.0000 C   0  0  0  0  0  0  0  0  0  0  0  0
    3.5825   -2.1296    0.0000 C   0  0  0  0  0  0  0  0  0  0  0  0
    3.2829    1.9477    0.0000 C   0  0  0  0  0  0  0  0  0  0  0  0
    6.1255   -2.9758    0.0000 C   0  0  0  0  0  0  0  0  0  0  0  0
    4.2018    3.4826    0.0000 C   0  0  0  0  0  0  0  0  0  0  0  0
    7.9143   -2.9475    0.0000 C   0  0  0  0  0  0  0  0  0  0  0  0
    3.2953    2.9828    0.0000 C   0  0  0  0  0  0  0  0  0  0  0  0
    7.0281   -3.4826    0.0000 C   0  0  0  0  0  0  0  0  0  0  0  0
    8.8309    2.3779    0.0000 H   0  0  0  0  0  0  0  0  0  0  0  0
    7.9719    0.1011    0.0000 H   0  0  0  0  0  0  0  0  0  0  0  0
   10.8739    0.9428    0.0000 H   0  0  0  0  0  0  0  0  0  0  0  0
   10.4947    1.7119    0.0000 H   0  0  0  0  0  0  0  0  0  0  0  0
    9.8118   -0.4192    0.0000 H   0  0  0  0  0  0  0  0  0  0  0  0
   10.6151   -0.0231    0.0000 H   0  0  0  0  0  0  0  0  0  0  0  0
    5.6302    3.2338    0.0000 H   0  0  0  0  0  0  0  0  0  0  0  0
    8.4129   -1.5861    0.0000 H   0  0  0  0  0  0  0  0  0  0  0  0
    2.7435    1.6421    0.0000 H   0  0  0  0  0  0  0  0  0  0  0  0
    5.5911   -3.2902    0.0000 H   0  0  0  0  0  0  0  0  0  0  0  0
    2.1000   -2.0176    0.0000 H   0  0  0  0  0  0  0  0  0  0  0  0
    4.2164    4.1025    0.0000 H   0  0  0  0  0  0  0  0  0  0  0  0
    8.4584   -3.2448    0.0000 H   0  0  0  0  0  0  0  0  0  0  0  0
    2.7634    3.3013    0.0000 H   0  0  0  0  0  0  0  0  0  0  0  0
    7.0380   -4.1026    0.0000 H   0  0  0  0  0  0  0  0  0  0  0  0
  1  7  1  0  0  0  0
  1  8  1  0  0  0  0
  2 23  2  0  0  0  0
  3 24  2  0  0  0  0
  4  7  1  0  0  0  0
  4  9  1  0  0  0  0
  4 15  1  0  0  0  0
  5  8  1  0  0  0  0
  5 10  1  0  0  0  0
  5 16  1  0  0  0  0
  6 23  1  0  0  0  0
  6 24  1  0  0  0  0
  6 41  1  0  0  0  0
  7 11  1  0  0  0  0
  7 31  1  0  0  0  0
  8 12  1  0  0  0  0
  8 32  1  6  0  0  0
  9 10  2  0  0  0  0
  9 13  1  0  0  0  0
 10 14  1  0  0  0  0
 11 12  1  0  0  0  0
 11 33  1  0  0  0  0
 11 34  1  0  0  0  0
 12 35  1  0  0  0  0
 12 36  1  0  0  0  0
 13 17  1  0  0  0  0
 13 19  2  0  0  0  0
 14 18  1  0  0  0  0
 14 20  2  0  0  0  0
 15 17  1  0  0  0  0
 15 21  2  0  0  0  0
 16 18  1  0  0  0  0
 16 22  2  0  0  0  0
 17 25  2  0  0  0  0
 18 26  2  0  0  0  0
 19 20  1  0  0  0  0
 19 23  1  0  0  0  0
 20 24  1  0  0  0  0
 21 27  1  0  0  0  0
 21 37  1  0  0  0  0
 22 28  1  0  0  0  0
 22 38  1  0  0  0  0
 25 29  1  0  0  0  0
 25 39  1  0  0  0  0
 26 30  1  0  0  0  0
 26 40  1  0  0  0  0
 27 29  2  0  0  0  0
 27 42  1  0  0  0  0
 28 30  2  0  0  0  0
 28 43  1  0  0  0  0
 29 44  1  0  0  0  0
 30 45  1  0  0  0  0
M  END
> <PUBCHEM_COMPOUND_CID>
6419750

> <PUBCHEM_COMPOUND_CANONICALIZED>
1

> <PUBCHEM_CACTVS_COMPLEXITY>
754

> <PUBCHEM_CACTVS_HBOND_ACCEPTOR>
3

> <PUBCHEM_CACTVS_HBOND_DONOR>
1

> <PUBCHEM_CACTVS_ROTATABLE_BOND>
0

> <PUBCHEM_CACTVS_SUBSKEYS>
AAADccB7MAAAAAAAAAAAAAAAAAAAAWLFiQAwYMAABYAWAFix/gAAHgAQAAAADAjhngYwwPPMFACoAyVyVACCgCQlEiAI2CE4dNgIYPLAlZGeIQhkhCDIyQc9icCeyAACQAASACCQAASAACQAQAAAAAAAAA==

> <PUBCHEM_IUPAC_INCHI>
InChI=1S/C24H15N3O3/c28-23-19-17-11-5-1-3-7-13(11)26-15-9-10-16(30-15)27-14-8-4-2-6-12(14)18(22(27)21(17)26)20(19)24(29)25-23/h1-8,15-16H,9-10H2,(H,25,28,29)/t15-,16?/m0/s1

> <PUBCHEM_IUPAC_INCHIKEY>
OTPNDVKVEAIXTI-VYRBHSGPSA-N

> <PUBCHEM_XLOGP3_AA>
3.8

> <PUBCHEM_EXACT_MASS>
393.111

> <PUBCHEM_MOLECULAR_FORMULA>
C24H15N3O3

> <PUBCHEM_MOLECULAR_WEIGHT>
393.402

> <PUBCHEM_OPENEYE_CAN_SMILES>
C1CC2N3C4=CC=CC=C4C5=C6C(=C7C8=CC=CC=C8N(C1O2)C7=C53)C(=O)NC6=O

> <PUBCHEM_OPENEYE_ISO_SMILES>
C1CC2N3C4=CC=CC=C4C5=C6C(=C7C8=CC=CC=C8N([C@H]1O2)C7=C53)C(=O)NC6=O

> <PUBCHEM_CACTVS_TPSA>
65.3

> <PUBCHEM_MONOISOTOPIC_WEIGHT>
393.111

> <PUBCHEM_TOTAL_CHARGE>
0

> <PUBCHEM_HEAVY_ATOM_COUNT>
30

> <PUBCHEM_ATOM_DEF_STEREO_COUNT>
1

> <PUBCHEM_ATOM_UDEF_STEREO_COUNT>
1

> <PUBCHEM_BOND_DEF_STEREO_COUNT>
0

> <PUBCHEM_BOND_UDEF_STEREO_COUNT>
0

> <PUBCHEM_ISOTOPIC_ATOM_COUNT>
0

> <PUBCHEM_COMPONENT_COUNT>
1

> <PUBCHEM_CACTVS_TAUTO_COUNT>
2

> <PUBCHEM_COORDINATE_TYPE>
1
5
255

> <PUBCHEM_BONDANNOTATIONS>
10  14  8
13  17  8
13  19  8
14  18  8
14  20  8
15  17  8
15  21  8
16  18  8
16  22  8
17  25  8
18  26  8
19  20  8
21  27  8
22  28  8
25  29  8
26  30  8
27  29  8
28  30  8
4  15  8
4  9  8
5  10  8
5  16  8
7  11  3
8  32  6
9  10  8
9  13  8

$$$$
5280343
  -OEChem-11021604552D

 32 34  0     0  0  0  0  0  0999 V2000
    6.0682   -0.2704    0.0000 O   0  0  0  0  0  0  0  0  0  0  0  0
    7.8003    1.7296    0.0000 O   0  0  0  0  0  0  0  0  0  0  0  0
    4.3198    2.7642    0.0000 O   0  0  0  0  0  0  0  0  0  0  0  0
    6.0682    2.7296    0.0000 O   0  0  0  0  0  0  0  0  0  0  0  0
    2.5381   -0.2945    0.0000 O   0  0  0  0  0  0  0  0  0  0  0  0
    8.6663   -2.7704    0.0000 O   0  0  0  0  0  0  0  0  0  0  0  0
   10.3984   -1.7704    0.0000 O   0  0  0  0  0  0  0  0  0  0  0  0
    5.2022    1.2296    0.0000 C   0  0  0  0  0  0  0  0  0  0  0  0
    5.2022    0.2296    0.0000 C   0  0  0  0  0  0  0  0  0  0  0  0
    6.9343    0.2296    0.0000 C   0  0  0  0  0  0  0  0  0  0  0  0
    7.8003   -0.2704    0.0000 C   0  0  0  0  0  0  0  0  0  0  0  0
    6.9343    1.2296    0.0000 C   0  0  0  0  0  0  0  0  0  0  0  0
    6.0682    1.7296    0.0000 C   0  0  0  0  0  0  0  0  0  0  0  0
    4.3083    1.7643    0.0000 C   0  0  0  0  0  0  0  0  0  0  0  0
    4.3083   -0.3051    0.0000 C   0  0  0  0  0  0  0  0  0  0  0  0
    3.4022    0.2088    0.0000 C   0  0  0  0  0  0  0  0  0  0  0  0
    7.8003   -1.2704    0.0000 C   0  0  0  0  0  0  0  0  0  0  0  0
    3.4022    1.2504    0.0000 C   0  0  0  0  0  0  0  0  0  0  0  0
    8.6663    0.2296    0.0000 C   0  0  0  0  0  0  0  0  0  0  0  0
    8.6663   -1.7704    0.0000 C   0  0  0  0  0  0  0  0  0  0  0  0
    9.5323   -0.2704    0.0000 C   0  0  0  0  0  0  0  0  0  0  0  0
    9.5323   -1.2704    0.0000 C   0  0  0  0  0  0  0  0  0  0  0  0
    4.3154   -0.9250    0.0000 H   0  0  0  0  0  0  0  0  0  0  0  0
    7.2634   -1.5804    0.0000 H   0  0  0  0  0  0  0  0  0  0  0  0
    2.8665    1.5625    0.0000 H   0  0  0  0  0  0  0  0  0  0  0  0
    8.6663    0.8496    0.0000 H   0  0  0  0  0  0  0  0  0  0  0  0
   10.0693    0.0396    0.0000 H   0  0  0  0  0  0  0  0  0  0  0  0
    7.8003    2.3496    0.0000 H   0  0  0  0  0  0  0  0  0  0  0  0
    3.7865    3.0804    0.0000 H   0  0  0  0  0  0  0  0  0  0  0  0
    2.0000    0.0134    0.0000 H   0  0  0  0  0  0  0  0  0  0  0  0
    8.1294   -3.0804    0.0000 H   0  0  0  0  0  0  0  0  0  0  0  0
   10.9353   -1.4604    0.0000 H   0  0  0  0  0  0  0  0  0  0  0  0
  1  9  1  0  0  0  0
  1 10  1  0  0  0  0
  2 12  1  0  0  0  0
  2 28  1  0  0  0  0
  3 14  1  0  0  0  0
  3 29  1  0  0  0  0
  4 13  2  0  0  0  0
  5 16  1  0  0  0  0
  5 30  1  0  0  0  0
  6 20  1  0  0  0  0
  6 31  1  0  0  0  0
  7 22  1  0  0  0  0
  7 32  1  0  0  0  0
  8  9  1  0  0  0  0
  8 13  1  0  0  0  0
  8 14  2  0  0  0  0
  9 15  2  0  0  0  0
 10 11  1  0  0  0  0
 10 12  2  0  0  0  0
 11 17  2  0  0  0  0
 11 19  1  0  0  0  0
 12 13  1  0  0  0  0
 14 18  1  0  0  0  0
 15 16  1  0  0  0  0
 15 23  1  0  0  0  0
 16 18  2  0  0  0  0
 17 20  1  0  0  0  0
 17 24  1  0  0  0  0
 18 25  1  0  0  0  0
 19 21  2  0  0  0  0
 19 26  1  0  0  0  0
 20 22  2  0  0  0  0
 21 22  1  0  0  0  0
 21 27  1  0  0  0  0
M  END
> <PUBCHEM_COMPOUND_CID>
5280343

> <PUBCHEM_COMPOUND_CANONICALIZED>
1

> <PUBCHEM_CACTVS_COMPLEXITY>
488

> <PUBCHEM_CACTVS_HBOND_ACCEPTOR>
7

> <PUBCHEM_CACTVS_HBOND_DONOR>
5

> <PUBCHEM_CACTVS_ROTATABLE_BOND>
1

> <PUBCHEM_CACTVS_SUBSKEYS>
AAADccBwOAAAAAAAAAAAAAAAAAAAAAAAAAAwYIAAAAAAAACBQAAAGgAACAAADASAmAAwBoAABgCIAqBSAAICCAAkIAAIiAFGiMgNJzaGNRqCeWGl4BUJuQfI7LzOIAABCAAIQABAAAIQABCAAAAAAAAAAA==

> <PUBCHEM_IUPAC_OPENEYE_NAME>
2-(3,4-dihydroxyphenyl)-3,5,7-trihydroxy-chromen-4-one

> <PUBCHEM_IUPAC_CAS_NAME>
2-(3,4-dihydroxyphenyl)-3,5,7-trihydroxy-1-benzopyran-4-one

> <PUBCHEM_IUPAC_NAME>
2-(3,4-dihydroxyphenyl)-3,5,7-trihydroxychromen-4-one

> <PUBCHEM_IUPAC_SYSTEMATIC_NAME>
2-[3,4-bis(oxidanyl)phenyl]-3,5,7-tris(oxidanyl)chromen-4-one

> <PUBCHEM_IUPAC_TRADITIONAL_NAME>
2-(3,4-dihydroxyphenyl)-3,5,7-trihydroxy-chromone

> <PUBCHEM_IUPAC_INCHI>
InChI=1S/C15H10O7/c16-7-4-10(19)12-11(5-7)22-15(14(21)13(12)20)6-1-2-8(17)9(18)3-6/h1-5,16-19,21H

> <PUBCHEM_IUPAC_INCHIKEY>
REFJWTPEDVJJIY-UHFFFAOYSA-N

> <PUBCHEM_XLOGP3>
1.5

> <PUBCHEM_EXACT_MASS>
302.043

> <PUBCHEM_MOLECULAR_FORMULA>
C15H10O7

> <PUBCHEM_MOLECULAR_WEIGHT>
302.238

> <PUBCHEM_OPENEYE_CAN_SMILES>
C1=CC(=C(C=C1C2=C(C(=O)C3=C(C=C(C=C3O2)O)O)O)O)O

> <PUBCHEM_OPENEYE_ISO_SMILES>
C1=CC(=C(C=C1C2=C(C(=O)C3=C(C=C(C=C3O2)O)O)O)O)O

> <PUBCHEM_CACTVS_TPSA>
127

> <PUBCHEM_MONOISOTOPIC_WEIGHT>
302.043

> <PUBCHEM_TOTAL_CHARGE>
0

> <PUBCHEM_HEAVY_ATOM_COUNT>
22

> <PUBCHEM_ATOM_DEF_STEREO_COUNT>
0

> <PUBCHEM_ATOM_UDEF_STEREO_COUNT>
0

> <PUBCHEM_BOND_DEF_STEREO_COUNT>
0

> <PUBCHEM_BOND_UDEF_STEREO_COUNT>
0

> <PUBCHEM_ISOTOPIC_ATOM_COUNT>
0

> <PUBCHEM_COMPONENT_COUNT>
1

> <PUBCHEM_CACTVS_TAUTO_COUNT>
174

> <PUBCHEM_COORDINATE_TYPE>
1
5
255

> <PUBCHEM_BONDANNOTATIONS>
1  10  8
1  9  8
10  12  8
11  17  8
11  19  8
12  13  8
14  18  8
15  16  8
16  18  8
17  20  8
19  21  8
20  22  8
21  22  8
8  13  8
8  14  8
8  9  8
9  15  8

$$$$
5908088
  -OEChem-11021604552D

 26 28  0     0  0  0  0  0  0999 V2000
    6.2619   -1.0089    0.0000 O   0  0  0  0  0  0  0  0  0  0  0  0
    4.6783   -1.8136    0.0000 N   0  0  0  0  0  0  0  0  0  0  0  0
    6.3758    1.8654    0.0000 N   0  0  0  0  0  0  0  0  0  0  0  0
    3.7320   -0.5089    0.0000 C   0  0  0  0  0  0  0  0  0  0  0  0
    4.6783   -0.2041    0.0000 C   0  0  0  0  0  0  0  0  0  0  0  0
    3.7320   -1.5089    0.0000 C   0  0  0  0  0  0  0  0  0  0  0  0
    5.2619   -1.0089    0.0000 C   0  0  0  0  0  0  0  0  0  0  0  0
    4.9889    0.7464    0.0000 C   0  0  0  0  0  0  0  0  0  0  0  0
    2.8660   -0.0089    0.0000 C   0  0  0  0  0  0  0  0  0  0  0  0
    5.9674    0.9526    0.0000 C   0  0  0  0  0  0  0  0  0  0  0  0
    2.8660   -2.0089    0.0000 C   0  0  0  0  0  0  0  0  0  0  0  0
    2.0000   -0.5089    0.0000 C   0  0  0  0  0  0  0  0  0  0  0  0
    2.0000   -1.5089    0.0000 C   0  0  0  0  0  0  0  0  0  0  0  0
    6.7094    0.2822    0.0000 C   0  0  0  0  0  0  0  0  0  0  0  0
    7.3701    1.7592    0.0000 C   0  0  0  0  0  0  0  0  0  0  0  0
    7.5763    0.7807    0.0000 C   0  0  0  0  0  0  0  0  0  0  0  0
    4.8709   -2.4029    0.0000 H   0  0  0  0  0  0  0  0  0  0  0  0
    4.5749    1.2079    0.0000 H   0  0  0  0  0  0  0  0  0  0  0  0
    2.8660    0.6111    0.0000 H   0  0  0  0  0  0  0  0  0  0  0  0
    2.8660   -2.6289    0.0000 H   0  0  0  0  0  0  0  0  0  0  0  0
    1.4631   -0.1989    0.0000 H   0  0  0  0  0  0  0  0  0  0  0  0
    1.4631   -1.8189    0.0000 H   0  0  0  0  0  0  0  0  0  0  0  0
    6.0667    2.4029    0.0000 H   0  0  0  0  0  0  0  0  0  0  0  0
    6.6436   -0.3343    0.0000 H   0  0  0  0  0  0  0  0  0  0  0  0
    7.7858    2.2192    0.0000 H   0  0  0  0  0  0  0  0  0  0  0  0
    8.1423    0.5275    0.0000 H   0  0  0  0  0  0  0  0  0  0  0  0
  1  7  2  0  0  0  0
  2  6  1  0  0  0  0
  2  7  1  0  0  0  0
  2 17  1  0  0  0  0
  3 10  1  0  0  0  0
  3 15  1  0  0  0  0
  3 23  1  0  0  0  0
  4  5  1  0  0  0  0
  4  6  1  0  0  0  0
  4  9  2  0  0  0  0
  5  7  1  0  0  0  0
  5  8  2  0  0  0  0
  6 11  2  0  0  0  0
  8 10  1  0  0  0  0
  8 18  1  0  0  0  0
  9 12  1  0  0  0  0
  9 19  1  0  0  0  0
 10 14  2  0  0  0  0
 11 13  1  0  0  0  0
 11 20  1  0  0  0  0
 12 13  2  0  0  0  0
 12 21  1  0  0  0  0
 13 22  1  0  0  0  0
 14 16  1  0  0  0  0
 14 24  1  0  0  0  0
 15 16  2  0  0  0  0
 15 25  1  0  0  0  0
 16 26  1  0  0  0  0
M  END
> <PUBCHEM_COMPOUND_CID>
5908088

> <PUBCHEM_COMPOUND_CANONICALIZED>
1

> <PUBCHEM_CACTVS_COMPLEXITY>
324

> <PUBCHEM_CACTVS_HBOND_ACCEPTOR>
1

> <PUBCHEM_CACTVS_HBOND_DONOR>
2

> <PUBCHEM_CACTVS_ROTATABLE_BOND>
1

> <PUBCHEM_CACTVS_SUBSKEYS>
AAADccBzIAAAAAAAAAAAAAAAAAAAAWLAAAAwAAAAAAAAAFgBwAAAHgAQAAAADAjBngQ8wJLJkACoAzV3VACCgCAxAiAI2aE4ZNgIIPLAlZGEIAhglADIyYcciICOAAAAAAACAAAAAAAAAAQAAAAAAAAAAA==

> <PUBCHEM_IUPAC_OPENEYE_NAME>
(3Z)-3-(1H-pyrrol-2-ylmethylene)indolin-2-one

> <PUBCHEM_IUPAC_CAS_NAME>
(3Z)-3-(1H-pyrrol-2-ylmethylidene)-1H-indol-2-one

> <PUBCHEM_IUPAC_NAME>
(3Z)-3-(1H-pyrrol-2-ylmethylidene)-1H-indol-2-one

> <PUBCHEM_IUPAC_SYSTEMATIC_NAME>
(3Z)-3-(1H-pyrrol-2-ylmethylidene)-1H-indol-2-one

> <PUBCHEM_IUPAC_TRADITIONAL_NAME>
(3Z)-3-(1H-pyrrol-2-ylmethylene)oxindole

> <PUBCHEM_IUPAC_INCHI>
InChI=1S/C13H10N2O/c16-13-11(8-9-4-3-7-14-9)10-5-1-2-6-12(10)15-13/h1-8,14H,(H,15,16)/b11-8-

> <PUBCHEM_IUPAC_INCHIKEY>
SEZFNTZQMWJIAI-FLIBITNWSA-N

> <PUBCHEM_XLOGP3_AA>
1.7

> <PUBCHEM_EXACT_MASS>
210.079

> <PUBCHEM_MOLECULAR_FORMULA>
C13H10N2O

> <PUBCHEM_MOLECULAR_WEIGHT>
210.236

> <PUBCHEM_OPENEYE_CAN_SMILES>
C1=CC=C2C(=C1)C(=CC3=CC=CN3)C(=O)N2

> <PUBCHEM_OPENEYE_ISO_SMILES>
C1=CC=C2C(=C1)/C(=C/C3=CC=CN3)/C(=O)N2

> <PUBCHEM_CACTVS_TPSA>
44.9

> <PUBCHEM_MONOISOTOPIC_WEIGHT>
210.079

> <PUBCHEM_TOTAL_CHARGE>
0

> <PUBCHEM_HEAVY_ATOM_COUNT>
16

> <PUBCHEM_ATOM_DEF_STEREO_COUNT>
0

> <PUBCHEM_ATOM_UDEF_STEREO_COUNT>
0

> <PUBCHEM_BOND_DEF_STEREO_COUNT>
1

> <PUBCHEM_BOND_UDEF_STEREO_COUNT>
0

> <PUBCHEM_ISOTOPIC_ATOM_COUNT>
0

> <PUBCHEM_COMPONENT_COUNT>
1

> <PUBCHEM_CACTVS_TAUTO_COUNT>
7

> <PUBCHEM_COORDINATE_TYPE>
1
5
255

> <PUBCHEM_BONDANNOTATIONS>
10  14  8
11  13  8
12  13  8
14  16  8
15  16  8
3  10  8
3  15  8
4  6  8
4  9  8
6  11  8
9  12  8

$$$$
3815
  -OEChem-11021604552D

 37 42  0     0  0  0  0  0  0999 V2000
    6.3326   -1.7552    0.0000 O   0  0  0  0  0  0  0  0  0  0  0  0
    2.6067    1.1671    0.0000 N   0  0  0  0  0  0  0  0  0  0  0  0
    2.6067   -1.1671    0.0000 N   0  0  0  0  0  0  0  0  0  0  0  0
    6.6056    0.0000    0.0000 N   0  0  0  0  0  0  0  0  0  0  0  0
    5.0757    0.5000    0.0000 C   0  0  0  0  0  0  0  0  0  0  0  0
    4.2097    1.0000    0.0000 C   0  0  0  0  0  0  0  0  0  0  0  0
    4.2097   -1.0000    0.0000 C   0  0  0  0  0  0  0  0  0  0  0  0
    3.3437    0.5000    0.0000 C   0  0  0  0  0  0  0  0  0  0  0  0
    5.0757   -0.5000    0.0000 C   0  0  0  0  0  0  0  0  0  0  0  0
    3.3437   -0.5000    0.0000 C   0  0  0  0  0  0  0  0  0  0  0  0
    6.0220    0.8047    0.0000 C   0  0  0  0  0  0  0  0  0  0  0  0
    4.0005    1.9718    0.0000 C   0  0  0  0  0  0  0  0  0  0  0  0
    4.0005   -1.9718    0.0000 C   0  0  0  0  0  0  0  0  0  0  0  0
    3.0118    2.0749    0.0000 C   0  0  0  0  0  0  0  0  0  0  0  0
    3.0118   -2.0749    0.0000 C   0  0  0  0  0  0  0  0  0  0  0  0
    6.0220   -0.8047    0.0000 C   0  0  0  0  0  0  0  0  0  0  0  0
    4.6213    2.8006    0.0000 C   0  0  0  0  0  0  0  0  0  0  0  0
    4.6213   -2.8006    0.0000 C   0  0  0  0  0  0  0  0  0  0  0  0
    2.5753    3.0138    0.0000 C   0  0  0  0  0  0  0  0  0  0  0  0
    2.5753   -3.0138    0.0000 C   0  0  0  0  0  0  0  0  0  0  0  0
    4.2066    3.7494    0.0000 C   0  0  0  0  0  0  0  0  0  0  0  0
    4.2066   -3.7494    0.0000 C   0  0  0  0  0  0  0  0  0  0  0  0
    3.1767    3.8567    0.0000 C   0  0  0  0  0  0  0  0  0  0  0  0
    3.1767   -3.8567    0.0000 C   0  0  0  0  0  0  0  0  0  0  0  0
    6.5593    1.1140    0.0000 H   0  0  0  0  0  0  0  0  0  0  0  0
    5.7709    1.3716    0.0000 H   0  0  0  0  0  0  0  0  0  0  0  0
    2.0000    1.0392    0.0000 H   0  0  0  0  0  0  0  0  0  0  0  0
    2.0000   -1.0392    0.0000 H   0  0  0  0  0  0  0  0  0  0  0  0
    7.2256    0.0000    0.0000 H   0  0  0  0  0  0  0  0  0  0  0  0
    5.2371    2.7292    0.0000 H   0  0  0  0  0  0  0  0  0  0  0  0
    5.2371   -2.7292    0.0000 H   0  0  0  0  0  0  0  0  0  0  0  0
    1.9579    3.0710    0.0000 H   0  0  0  0  0  0  0  0  0  0  0  0
    1.9579   -3.0710    0.0000 H   0  0  0  0  0  0  0  0  0  0  0  0
    4.5725    4.2499    0.0000 H   0  0  0  0  0  0  0  0  0  0  0  0
    4.5725   -4.2499    0.0000 H   0  0  0  0  0  0  0  0  0  0  0  0
    2.9219    4.4219    0.0000 H   0  0  0  0  0  0  0  0  0  0  0  0
    2.9219   -4.4219    0.0000 H   0  0  0  0  0  0  0  0  0  0  0  0
  1 16  2  0  0  0  0
  2  8  1  0  0  0  0
  2 14  1  0  0  0  0
  2 27  1  0  0  0  0
  3 10  1  0  0  0  0
  3 15  1  0  0  0  0
  3 28  1  0  0  0  0
  4 11  1  0  0  0  0
  4 16  1  0  0  0  0
  4 29  1  0  0  0  0
  5  6  2  0  0  0  0
  5  9  1  0  0  0  0
  5 11  1  0  0  0  0
  6  8  1  0  0  0  0
  6 12  1  0  0  0  0
  7  9  2  0  0  0  0
  7 10  1  0  0  0  0
  7 13  1  0  0  0  0
  8 10  2  0  0  0  0
  9 16  1  0  0  0  0
 11 25  1  0  0  0  0
 11 26  1  0  0  0  0
 12 14  1  0  0  0  0
 12 17  2  0  0  0  0
 13 15  1  0  0  0  0
 13 18  2  0  0  0  0
 14 19  2  0  0  0  0
 15 20  2  0  0  0  0
 17 21  1  0  0  0  0
 17 30  1  0  0  0  0
 18 22  1  0  0  0  0
 18 31  1  0  0  0  0
 19 23  1  0  0  0  0
 19 32  1  0  0  0  0
 20 24  1  0  0  0  0
 20 33  1  0  0  0  0
 21 23  2  0  0  0  0
 21 34  1  0  0  0  0
 22 24  2  0  0  0  0
 22 35  1  0  0  0  0
 23 36  1  0  0  0  0
 24 37  1  0  0  0  0
M  END
> <PUBCHEM_COMPOUND_CID>
3815

> <PUBCHEM_COMPOUND_CANONICALIZED>
1

> <PUBCHEM_CACTVS_COMPLEXITY>
551

> <PUBCHEM_CACTVS_HBOND_ACCEPTOR>
1

> <PUBCHEM_CACTVS_HBOND_DONOR>
3

> <PUBCHEM_CACTVS_ROTATABLE_BOND>
0

> <PUBCHEM_CACTVS_SUBSKEYS>
AAADccB7IAAAAAAAAAAAAAAAAAAAAWLFgAAwYMAAAAAAAFgB/gAAHgAQAAAADAjBngQwwPLJkACoAyVyVACCgCQlEiAImaE4dNgIYPLAlZGUIQhglgDIyQccicCeyAACQAASACCQAASAACQAQAAAAAAAAA==

> <PUBCHEM_IUPAC_INCHI>
InChI=1S/C20H13N3O/c24-20-17-12(9-21-20)15-10-5-1-3-7-13(10)22-18(15)19-16(17)11-6-2-4-8-14(11)23-19/h1-8,22-23H,9H2,(H,21,24)

> <PUBCHEM_IUPAC_INCHIKEY>
MEXUTNIFSHFQRG-UHFFFAOYSA-N

> <PUBCHEM_XLOGP3_AA>
3.7

> <PUBCHEM_EXACT_MASS>
311.106

> <PUBCHEM_MOLECULAR_FORMULA>
C20H13N3O

> <PUBCHEM_MOLECULAR_WEIGHT>
311.344

> <PUBCHEM_OPENEYE_CAN_SMILES>
C1C2=C3C4=CC=CC=C4NC3=C5C(=C2C(=O)N1)C6=CC=CC=C6N5

> <PUBCHEM_OPENEYE_ISO_SMILES>
C1C2=C3C4=CC=CC=C4NC3=C5C(=C2C(=O)N1)C6=CC=CC=C6N5

> <PUBCHEM_CACTVS_TPSA>
60.7

> <PUBCHEM_MONOISOTOPIC_WEIGHT>
311.106

> <PUBCHEM_TOTAL_CHARGE>
0

> <PUBCHEM_HEAVY_ATOM_COUNT>
24

> <PUBCHEM_ATOM_DEF_STEREO_COUNT>
0

> <PUBCHEM_ATOM_UDEF_STEREO_COUNT>
0

> <PUBCHEM_BOND_DEF_STEREO_COUNT>
0

> <PUBCHEM_BOND_UDEF_STEREO_COUNT>
0

> <PUBCHEM_ISOTOPIC_ATOM_COUNT>
0

> <PUBCHEM_COMPONENT_COUNT>
1

> <PUBCHEM_CACTVS_TAUTO_COUNT>
105

> <PUBCHEM_COORDINATE_TYPE>
1
5
255

> <PUBCHEM_BONDANNOTATIONS>
12  14  8
12  17  8
13  15  8
13  18  8
14  19  8
15  20  8
17  21  8
18  22  8
19  23  8
2  14  8
2  8  8
20  24  8
21  23  8
22  24  8
3  10  8
3  15  8
5  6  8
5  9  8
6  12  8
6  8  8
7  10  8
7  13  8
7  9  8
8  10  8

$$$$
6419759
  -OEChem-11021604552D

 58 65  0     1  0  0  0  0  0999 V2000
    7.7141    2.8707    0.0000 O   0  0  0  0  0  0  0  0  0  0  0  0
    9.9193   -0.8312    0.0000 O   0  0  0  0  0  0  0  0  0  0  0  0
   11.8509   -0.6501    0.0000 O   0  0  0  0  0  0  0  0  0  0  0  0
   11.3441    0.6702    0.0000 O   0  0  0  0  0  0  0  0  0  0  0  0
    2.0000   -0.0099    0.0000 O   0  0  0  0  0  0  0  0  0  0  0  0
    6.8258   -0.4438    0.0000 N   0  0  0  0  0  0  0  0  0  0  0  0
    5.8258    1.2882    0.0000 N   0  0  0  0  0  0  0  0  0  0  0  0
    2.6370   -1.7076    0.0000 N   0  0  0  0  0  0  0  0  0  0  0  0
    8.1919    0.9222    0.0000 C   0  0  1  0  0  0  0  0  0  0  0  0
   10.0238    0.1634    0.0000 C   0  0  3  0  0  0  0  0  0  0  0  0
    8.4507    1.8881    0.0000 C   0  0  2  0  0  0  0  0  0  0  0  0
   10.2826    1.1293    0.0000 C   0  0  0  0  0  0  0  0  0  0  0  0
    5.8258   -0.4438    0.0000 C   0  0  0  0  0  0  0  0  0  0  0  0
   10.9374   -0.2434    0.0000 C   0  0  0  0  0  0  0  0  0  0  0  0
    5.3258    0.4222    0.0000 C   0  0  0  0  0  0  0  0  0  0  0  0
    7.9330   -0.0437    0.0000 C   0  0  0  0  0  0  0  0  0  0  0  0
    5.3190   -1.3538    0.0000 C   0  0  0  0  0  0  0  0  0  0  0  0
    6.9718   -1.4269    0.0000 C   0  0  0  0  0  0  0  0  0  0  0  0
    4.2843    0.4382    0.0000 C   0  0  0  0  0  0  0  0  0  0  0  0
    5.0475    1.9061    0.0000 C   0  0  0  0  0  0  0  0  0  0  0  0
    6.1211   -1.9406    0.0000 C   0  0  0  0  0  0  0  0  0  0  0  0
    4.2774   -1.3619    0.0000 C   0  0  0  0  0  0  0  0  0  0  0  0
    4.1772    1.4263    0.0000 C   0  0  0  0  0  0  0  0  0  0  0  0
    3.7566   -0.4598    0.0000 C   0  0  0  0  0  0  0  0  0  0  0  0
   10.5306   -1.1569    0.0000 C   0  0  0  0  0  0  0  0  0  0  0  0
    3.5825   -2.1296    0.0000 C   0  0  0  0  0  0  0  0  0  0  0  0
    7.8859   -1.9127    0.0000 C   0  0  0  0  0  0  0  0  0  0  0  0
    2.7443   -0.6777    0.0000 C   0  0  0  0  0  0  0  0  0  0  0  0
    5.0838    2.9407    0.0000 C   0  0  0  0  0  0  0  0  0  0  0  0
    6.1255   -2.9758    0.0000 C   0  0  0  0  0  0  0  0  0  0  0  0
    3.2829    1.9477    0.0000 C   0  0  0  0  0  0  0  0  0  0  0  0
    7.9143   -2.9475    0.0000 C   0  0  0  0  0  0  0  0  0  0  0  0
    7.0281   -3.4826    0.0000 C   0  0  0  0  0  0  0  0  0  0  0  0
    4.2018    3.4826    0.0000 C   0  0  0  0  0  0  0  0  0  0  0  0
    3.2953    2.9828    0.0000 C   0  0  0  0  0  0  0  0  0  0  0  0
    8.6707    2.7091    0.0000 H   0  0  0  0  0  0  0  0  0  0  0  0
   10.8739    0.9428    0.0000 H   0  0  0  0  0  0  0  0  0  0  0  0
   10.4947    1.7119    0.0000 H   0  0  0  0  0  0  0  0  0  0  0  0
    7.3342    0.1167    0.0000 H   0  0  0  0  0  0  0  0  0  0  0  0
    7.7726   -0.6426    0.0000 H   0  0  0  0  0  0  0  0  0  0  0  0
    8.5319   -0.2042    0.0000 H   0  0  0  0  0  0  0  0  0  0  0  0
    9.3529   -1.0833    0.0000 H   0  0  0  0  0  0  0  0  0  0  0  0
    9.9642   -0.9047    0.0000 H   0  0  0  0  0  0  0  0  0  0  0  0
   10.2784   -1.7233    0.0000 H   0  0  0  0  0  0  0  0  0  0  0  0
   11.0970   -1.4091    0.0000 H   0  0  0  0  0  0  0  0  0  0  0  0
    3.2718   -2.6661    0.0000 H   0  0  0  0  0  0  0  0  0  0  0  0
    4.0834   -2.4950    0.0000 H   0  0  0  0  0  0  0  0  0  0  0  0
    8.4129   -1.5861    0.0000 H   0  0  0  0  0  0  0  0  0  0  0  0
   11.9607    0.7350    0.0000 H   0  0  0  0  0  0  0  0  0  0  0  0
   12.3525   -0.2857    0.0000 H   0  0  0  0  0  0  0  0  0  0  0  0
    5.6302    3.2338    0.0000 H   0  0  0  0  0  0  0  0  0  0  0  0
    5.5911   -3.2902    0.0000 H   0  0  0  0  0  0  0  0  0  0  0  0
    2.7435    1.6421    0.0000 H   0  0  0  0  0  0  0  0  0  0  0  0
    2.1000   -2.0176    0.0000 H   0  0  0  0  0  0  0  0  0  0  0  0
    8.4584   -3.2448    0.0000 H   0  0  0  0  0  0  0  0  0  0  0  0
    7.0380   -4.1026    0.0000 H   0  0  0  0  0  0  0  0  0  0  0  0
    4.2164    4.1025    0.0000 H   0  0  0  0  0  0  0  0  0  0  0  0
    2.7634    3.3013    0.0000 H   0  0  0  0  0  0  0  0  0  0  0  0
  1  9  1  0  0  0  0
  1 11  1  0  0  0  0
  2 10  1  0  0  0  0
  2 42  1  0  0  0  0
  3 14  1  0  0  0  0
  3 50  1  0  0  0  0
  4 14  1  0  0  0  0
  4 49  1  0  0  0  0
  5 28  2  0  0  0  0
  6  9  1  0  0  0  0
  6 13  1  0  0  0  0
  6 18  1  0  0  0  0
  7 11  1  0  0  0  0
  7 15  1  0  0  0  0
  7 20  1  0  0  0  0
  8 26  1  0  0  0  0
  8 28  1  0  0  0  0
  8 54  1  0  0  0  0
  9 10  1  0  0  0  0
  9 16  1  1  0  0  0
 10 12  1  0  0  0  0
 10 14  1  0  0  0  0
 11 12  1  0  0  0  0
 11 36  1  6  0  0  0
 12 37  1  0  0  0  0
 12 38  1  0  0  0  0
 13 15  2  0  0  0  0
 13 17  1  0  0  0  0
 14 25  1  0  0  0  0
 15 19  1  0  0  0  0
 16 39  1  0  0  0  0
 16 40  1  0  0  0  0
 16 41  1  0  0  0  0
 17 21  1  0  0  0  0
 17 22  2  0  0  0  0
 18 21  1  0  0  0  0
 18 27  2  0  0  0  0
 19 23  1  0  0  0  0
 19 24  2  0  0  0  0
 20 23  1  0  0  0  0
 20 29  2  0  0  0  0
 21 30  2  0  0  0  0
 22 24  1  0  0  0  0
 22 26  1  0  0  0  0
 23 31  2  0  0  0  0
 24 28  1  0  0  0  0
 25 43  1  0  0  0  0
 25 44  1  0  0  0  0
 25 45  1  0  0  0  0
 26 46  1  0  0  0  0
 26 47  1  0  0  0  0
 27 32  1  0  0  0  0
 27 48  1  0  0  0  0
 29 34  1  0  0  0  0
 29 51  1  0  0  0  0
 30 33  1  0  0  0  0
 30 52  1  0  0  0  0
 31 35  1  0  0  0  0
 31 53  1  0  0  0  0
 32 33  2  0  0  0  0
 32 55  1  0  0  0  0
 33 56  1  0  0  0  0
 34 35  2  0  0  0  0
 34 57  1  0  0  0  0
 35 58  1  0  0  0  0
M  END
> <PUBCHEM_COMPOUND_CID>
6419759

> <PUBCHEM_COMPOUND_CANONICALIZED>
1

> <PUBCHEM_CACTVS_COMPLEXITY>
961

> <PUBCHEM_CACTVS_HBOND_ACCEPTOR>
5

> <PUBCHEM_CACTVS_HBOND_DONOR>
4

> <PUBCHEM_CACTVS_ROTATABLE_BOND>
1

> <PUBCHEM_CACTVS_SUBSKEYS>
AAADceB7OAAAAAAAAAAAAAAAAAAAAWLFiQAwYMAABYAWAFix/gAAHgAQCAAADEzhngYyyPPMFgCoAyVyVACCgCQlEiAI2KE4dNgLYPLAlZGeYQhnhgDbyQf8icCeyAACQAASACCQAASAACQAQAAAAAAAAA==

> <PUBCHEM_IUPAC_INCHI>
InChI=1S/C27H23N3O5/c1-25-27(34,26(2,32)33)11-18(35-25)29-16-9-5-3-7-13(16)20-21-15(12-28-24(21)31)19-14-8-4-6-10-17(14)30(25)23(19)22(20)29/h3-10,18,32-34H,11-12H2,1-2H3,(H,28,31)/t18-,25+,27?/m0/s1

> <PUBCHEM_IUPAC_INCHIKEY>
USQLXDZPRMTKCL-PTDIFLHRSA-N

> <PUBCHEM_XLOGP3_AA>
1.9

> <PUBCHEM_EXACT_MASS>
469.164

> <PUBCHEM_MOLECULAR_FORMULA>
C27H23N3O5

> <PUBCHEM_MOLECULAR_WEIGHT>
469.497

> <PUBCHEM_OPENEYE_CAN_SMILES>
CC12C(CC(O1)N3C4=CC=CC=C4C5=C6C(=C7C8=CC=CC=C8N2C7=C53)CNC6=O)(C(C)(O)O)O

> <PUBCHEM_OPENEYE_ISO_SMILES>
C[C@]12C(C[C@H](O1)N3C4=CC=CC=C4C5=C6C(=C7C8=CC=CC=C8N2C7=C53)CNC6=O)(C(C)(O)O)O

> <PUBCHEM_CACTVS_TPSA>
109

> <PUBCHEM_MONOISOTOPIC_WEIGHT>
469.164

> <PUBCHEM_TOTAL_CHARGE>
0

> <PUBCHEM_HEAVY_ATOM_COUNT>
35

> <PUBCHEM_ATOM_DEF_STEREO_COUNT>
2

> <PUBCHEM_ATOM_UDEF_STEREO_COUNT>
1

> <PUBCHEM_BOND_DEF_STEREO_COUNT>
0

> <PUBCHEM_BOND_UDEF_STEREO_COUNT>
0

> <PUBCHEM_ISOTOPIC_ATOM_COUNT>
0

> <PUBCHEM_COMPONENT_COUNT>
1

> <PUBCHEM_CACTVS_TAUTO_COUNT>
2

> <PUBCHEM_COORDINATE_TYPE>
1
5
255

> <PUBCHEM_BONDANNOTATIONS>
11  36  6
13  15  8
13  17  8
15  19  8
17  21  8
17  22  8
18  21  8
18  27  8
19  23  8
19  24  8
10  2  3
20  23  8
20  29  8
21  30  8
22  24  8
23  31  8
27  32  8
29  34  8
30  33  8
31  35  8
32  33  8
34  35  8
6  13  8
6  18  8
7  15  8
7  20  8
9  16  5

$$$$
8515
  -OEChem-11021604552D

 25 28  0     0  0  0  0  0  0999 V2000
    4.6660    2.2333    0.0000 O   0  0  0  0  0  0  0  0  0  0  0  0
    3.3073   -1.7106    0.0000 N   0  0  0  0  0  0  0  0  0  0  0  0
    4.3009   -1.6910    0.0000 N   0  0  0  0  0  0  0  0  0  0  0  0
    3.8000   -0.2667    0.0000 C   0  0  0  0  0  0  0  0  0  0  0  0
    4.6660   -0.7667    0.0000 C   0  0  0  0  0  0  0  0  0  0  0  0
    3.8000    0.7333    0.0000 C   0  0  0  0  0  0  0  0  0  0  0  0
    5.5321   -0.2667    0.0000 C   0  0  0  0  0  0  0  0  0  0  0  0
    2.9061   -0.8014    0.0000 C   0  0  0  0  0  0  0  0  0  0  0  0
    5.5321    0.7333    0.0000 C   0  0  0  0  0  0  0  0  0  0  0  0
    4.6660    1.2333    0.0000 C   0  0  0  0  0  0  0  0  0  0  0  0
    2.9061    1.2680    0.0000 C   0  0  0  0  0  0  0  0  0  0  0  0
    2.0000   -0.2875    0.0000 C   0  0  0  0  0  0  0  0  0  0  0  0
    6.4260   -0.8014    0.0000 C   0  0  0  0  0  0  0  0  0  0  0  0
    6.4260    1.2680    0.0000 C   0  0  0  0  0  0  0  0  0  0  0  0
    2.0000    0.7541    0.0000 C   0  0  0  0  0  0  0  0  0  0  0  0
    7.3321   -0.2875    0.0000 C   0  0  0  0  0  0  0  0  0  0  0  0
    7.3321    0.7541    0.0000 C   0  0  0  0  0  0  0  0  0  0  0  0
    2.9132    1.8879    0.0000 H   0  0  0  0  0  0  0  0  0  0  0  0
    2.9739   -2.2333    0.0000 H   0  0  0  0  0  0  0  0  0  0  0  0
    1.4643   -0.5996    0.0000 H   0  0  0  0  0  0  0  0  0  0  0  0
    6.4188   -1.4213    0.0000 H   0  0  0  0  0  0  0  0  0  0  0  0
    6.4188    1.8879    0.0000 H   0  0  0  0  0  0  0  0  0  0  0  0
    1.4643    1.0662    0.0000 H   0  0  0  0  0  0  0  0  0  0  0  0
    7.8678   -0.5996    0.0000 H   0  0  0  0  0  0  0  0  0  0  0  0
    7.8678    1.0662    0.0000 H   0  0  0  0  0  0  0  0  0  0  0  0
  1 10  2  0  0  0  0
  2  3  1  0  0  0  0
  2  8  1  0  0  0  0
  2 19  1  0  0  0  0
  3  5  2  0  0  0  0
  4  5  1  0  0  0  0
  4  6  2  0  0  0  0
  4  8  1  0  0  0  0
  5  7  1  0  0  0  0
  6 10  1  0  0  0  0
  6 11  1  0  0  0  0
  7  9  1  0  0  0  0
  7 13  2  0  0  0  0
  8 12  2  0  0  0  0
  9 10  1  0  0  0  0
  9 14  2  0  0  0  0
 11 15  2  0  0  0  0
 11 18  1  0  0  0  0
 12 15  1  0  0  0  0
 12 20  1  0  0  0  0
 13 16  1  0  0  0  0
 13 21  1  0  0  0  0
 14 17  1  0  0  0  0
 14 22  1  0  0  0  0
 15 23  1  0  0  0  0
 16 17  2  0  0  0  0
 16 24  1  0  0  0  0
 17 25  1  0  0  0  0
M  END
> <PUBCHEM_COMPOUND_CID>
8515

> <PUBCHEM_COMPOUND_CANONICALIZED>
1

> <PUBCHEM_CACTVS_COMPLEXITY>
343

> <PUBCHEM_CACTVS_HBOND_ACCEPTOR>
2

> <PUBCHEM_CACTVS_HBOND_DONOR>
1

> <PUBCHEM_CACTVS_ROTATABLE_BOND>
0

> <PUBCHEM_CACTVS_SUBSKEYS>
AAADccBzIAAAAAAAAAAAAAAAAAAAAWAAAAAwYMAAAAAAAFjB9AAAHgAYAAAADAyBngAwwPBjAACqA6RyQACSBAAkAgAYuSEwZNgIILKA1dGApQBgmAAIyYcciMCOgAAAQAASAACAAASAACQAAAAAAAAAAA==

> <PUBCHEM_IUPAC_INCHI>
InChI=1S/C14H8N2O/c17-14-9-5-2-1-4-8(9)13-12-10(14)6-3-7-11(12)15-16-13/h1-7H,(H,15,16)

> <PUBCHEM_IUPAC_INCHIKEY>
ACPOUJIDANTYHO-UHFFFAOYSA-N

> <PUBCHEM_XLOGP3_AA>
2.7

> <PUBCHEM_EXACT_MASS>
220.064

> <PUBCHEM_MOLECULAR_FORMULA>
C14H8N2O

> <PUBCHEM_MOLECULAR_WEIGHT>
220.231

> <PUBCHEM_OPENEYE_CAN_SMILES>
C1=CC=C2C(=C1)C3=NNC4=CC=CC(=C43)C2=O

> <PUBCHEM_OPENEYE_ISO_SMILES>
C1=CC=C2C(=C1)C3=NNC4=CC=CC(=C43)C2=O

> <PUBCHEM_CACTVS_TPSA>
45.8

> <PUBCHEM_MONOISOTOPIC_WEIGHT>
220.064

> <PUBCHEM_TOTAL_CHARGE>
0

> <PUBCHEM_HEAVY_ATOM_COUNT>
17

> <PUBCHEM_ATOM_DEF_STEREO_COUNT>
0

> <PUBCHEM_ATOM_UDEF_STEREO_COUNT>
0

> <PUBCHEM_BOND_DEF_STEREO_COUNT>
0

> <PUBCHEM_BOND_UDEF_STEREO_COUNT>
0

> <PUBCHEM_ISOTOPIC_ATOM_COUNT>
0

> <PUBCHEM_COMPONENT_COUNT>
1

> <PUBCHEM_CACTVS_TAUTO_COUNT>
3

> <PUBCHEM_COORDINATE_TYPE>
1
5
255

> <PUBCHEM_BONDANNOTATIONS>
11  15  8
12  15  8
13  16  8
14  17  8
16  17  8
2  3  8
2  8  8
3  5  8
4  5  8
4  6  8
4  8  8
6  11  8
7  13  8
7  9  8
8  12  8
9  14  8

$$$$
5494425
  -OEChem-11021604552D

 39 42  0     0  0  0  0  0  0999 V2000
    8.0941    1.3330    0.0000 F   0  0  0  0  0  0  0  0  0  0  0  0
    5.4518    2.8403    0.0000 O   0  0  0  0  0  0  0  0  0  0  0  0
    4.3548   -1.6630    0.0000 N   0  0  0  0  0  0  0  0  0  0  0  0
    2.9609   -0.8583    0.0000 N   0  0  0  0  0  0  0  0  0  0  0  0
    3.6820    2.8781    0.0000 N   0  0  0  0  0  0  0  0  0  0  0  0
    2.8660   -2.6321    0.0000 C   0  0  0  0  0  0  0  0  0  0  0  0
    3.3660   -1.7660    0.0000 C   0  0  0  0  0  0  0  0  0  0  0  0
    4.5640   -0.6912    0.0000 C   0  0  0  0  0  0  0  0  0  0  0  0
    3.6979   -0.1912    0.0000 C   0  0  0  0  0  0  0  0  0  0  0  0
    5.4300   -0.1912    0.0000 C   0  0  0  0  0  0  0  0  0  0  0  0
    3.6979    0.8088    0.0000 C   0  0  0  0  0  0  0  0  0  0  0  0
    5.4300    0.8088    0.0000 C   0  0  0  0  0  0  0  0  0  0  0  0
    2.3660   -3.4981    0.0000 C   0  0  0  0  0  0  0  0  0  0  0  0
    2.0000   -2.1321    0.0000 C   0  0  0  0  0  0  0  0  0  0  0  0
    3.7320   -3.1321    0.0000 C   0  0  0  0  0  0  0  0  0  0  0  0
    4.5640    1.3088    0.0000 C   0  0  0  0  0  0  0  0  0  0  0  0
    6.3239   -0.7258    0.0000 C   0  0  0  0  0  0  0  0  0  0  0  0
    2.7879    1.3157    0.0000 C   0  0  0  0  0  0  0  0  0  0  0  0
    6.3239    1.3435    0.0000 C   0  0  0  0  0  0  0  0  0  0  0  0
    4.5800    2.3503    0.0000 C   0  0  0  0  0  0  0  0  0  0  0  0
    7.2300   -0.2120    0.0000 C   0  0  0  0  0  0  0  0  0  0  0  0
    2.7799    2.3573    0.0000 C   0  0  0  0  0  0  0  0  0  0  0  0
    7.2300    0.8296    0.0000 C   0  0  0  0  0  0  0  0  0  0  0  0
    4.7688   -2.1244    0.0000 H   0  0  0  0  0  0  0  0  0  0  0  0
    1.8291   -3.1881    0.0000 H   0  0  0  0  0  0  0  0  0  0  0  0
    2.0560   -4.0350    0.0000 H   0  0  0  0  0  0  0  0  0  0  0  0
    2.3100   -1.5951    0.0000 H   0  0  0  0  0  0  0  0  0  0  0  0
    1.4631   -1.8221    0.0000 H   0  0  0  0  0  0  0  0  0  0  0  0
    1.6900   -2.6690    0.0000 H   0  0  0  0  0  0  0  0  0  0  0  0
    3.4220   -3.6690    0.0000 H   0  0  0  0  0  0  0  0  0  0  0  0
    4.2690   -3.4421    0.0000 H   0  0  0  0  0  0  0  0  0  0  0  0
    4.0420   -2.5951    0.0000 H   0  0  0  0  0  0  0  0  0  0  0  0
    2.9030   -3.8081    0.0000 H   0  0  0  0  0  0  0  0  0  0  0  0
    6.3168   -1.3458    0.0000 H   0  0  0  0  0  0  0  0  0  0  0  0
    2.2546    0.9995    0.0000 H   0  0  0  0  0  0  0  0  0  0  0  0
    6.3168    1.9634    0.0000 H   0  0  0  0  0  0  0  0  0  0  0  0
    7.7657   -0.5240    0.0000 H   0  0  0  0  0  0  0  0  0  0  0  0
    2.2418    2.6652    0.0000 H   0  0  0  0  0  0  0  0  0  0  0  0
    3.6844    3.4981    0.0000 H   0  0  0  0  0  0  0  0  0  0  0  0
  1 23  1  0  0  0  0
  2 20  2  0  0  0  0
  3  7  1  0  0  0  0
  3  8  1  0  0  0  0
  3 24  1  0  0  0  0
  4  7  2  0  0  0  0
  4  9  1  0  0  0  0
  5 20  1  0  0  0  0
  5 22  1  0  0  0  0
  5 39  1  0  0  0  0
  6  7  1  0  0  0  0
  6 13  1  0  0  0  0
  6 14  1  0  0  0  0
  6 15  1  0  0  0  0
  8  9  2  0  0  0  0
  8 10  1  0  0  0  0
  9 11  1  0  0  0  0
 10 12  2  0  0  0  0
 10 17  1  0  0  0  0
 11 16  2  0  0  0  0
 11 18  1  0  0  0  0
 12 16  1  0  0  0  0
 12 19  1  0  0  0  0
 13 25  1  0  0  0  0
 13 26  1  0  0  0  0
 13 33  1  0  0  0  0
 14 27  1  0  0  0  0
 14 28  1  0  0  0  0
 14 29  1  0  0  0  0
 15 30  1  0  0  0  0
 15 31  1  0  0  0  0
 15 32  1  0  0  0  0
 16 20  1  0  0  0  0
 17 21  2  0  0  0  0
 17 34  1  0  0  0  0
 18 22  2  0  0  0  0
 18 35  1  0  0  0  0
 19 23  2  0  0  0  0
 19 36  1  0  0  0  0
 21 23  1  0  0  0  0
 21 37  1  0  0  0  0
 22 38  1  0  0  0  0
M  END
> <PUBCHEM_COMPOUND_CID>
5494425

> <PUBCHEM_COMPOUND_CANONICALIZED>
1

> <PUBCHEM_CACTVS_COMPLEXITY>
529

> <PUBCHEM_CACTVS_HBOND_ACCEPTOR>
3

> <PUBCHEM_CACTVS_HBOND_DONOR>
2

> <PUBCHEM_CACTVS_ROTATABLE_BOND>
1

> <PUBCHEM_CACTVS_SUBSKEYS>
AAADceB7IQAAAAAAAAAAAAAAAAAAAWAAAAAwYIAAAAAAAFjB9AAAHwAQAAAADgjBnwwz0PbJkACoAyd2dACCgC2lEqAJmaEoVNiIaLLAnZGUIQhoggLIySccicCeyAACQAASACCQAASAACQAQAAAAAAAAA==

> <PUBCHEM_IUPAC_INCHI>
InChI=1S/C18H16FN3O/c1-18(2,3)17-21-14-10-5-4-9(19)8-12(10)13-11(15(14)22-17)6-7-20-16(13)23/h4-8H,1-3H3,(H,20,23)(H,21,22)

> <PUBCHEM_IUPAC_INCHIKEY>
VNDWQCSOSCCWIP-UHFFFAOYSA-N

> <PUBCHEM_XLOGP3_AA>
4

> <PUBCHEM_EXACT_MASS>
309.128

> <PUBCHEM_MOLECULAR_FORMULA>
C18H16FN3O

> <PUBCHEM_MOLECULAR_WEIGHT>
309.344

> <PUBCHEM_OPENEYE_CAN_SMILES>
CC(C)(C)C1=NC2=C(N1)C3=C(C=C(C=C3)F)C4=C2C=CNC4=O

> <PUBCHEM_OPENEYE_ISO_SMILES>
CC(C)(C)C1=NC2=C(N1)C3=C(C=C(C=C3)F)C4=C2C=CNC4=O

> <PUBCHEM_CACTVS_TPSA>
57.8

> <PUBCHEM_MONOISOTOPIC_WEIGHT>
309.128

> <PUBCHEM_TOTAL_CHARGE>
0

> <PUBCHEM_HEAVY_ATOM_COUNT>
23

> <PUBCHEM_ATOM_DEF_STEREO_COUNT>
0

> <PUBCHEM_ATOM_UDEF_STEREO_COUNT>
0

> <PUBCHEM_BOND_DEF_STEREO_COUNT>
0

> <PUBCHEM_BOND_UDEF_STEREO_COUNT>
0

> <PUBCHEM_ISOTOPIC_ATOM_COUNT>
0

> <PUBCHEM_COMPONENT_COUNT>
1

> <PUBCHEM_CACTVS_TAUTO_COUNT>
13

> <PUBCHEM_COORDINATE_TYPE>
1
5
255

> <PUBCHEM_BONDANNOTATIONS>
10  12  8
10  17  8
11  16  8
11  18  8
12  16  8
12  19  8
16  20  8
17  21  8
18  22  8
19  23  8
21  23  8
3  7  8
3  8  8
4  7  8
4  9  8
5  20  8
5  22  8
8  10  8
8  9  8
9  11  8

$$$$
5326739
  -OEChem-11021604552D

 32 35  0     0  0  0  0  0  0999 V2000
    6.5348   -2.4221    0.0000 O   0  0  0  0  0  0  0  0  0  0  0  0
    4.3211    1.8327    0.0000 O   0  0  0  0  0  0  0  0  0  0  0  0
    4.6783   -1.4715    0.0000 N   0  0  0  0  0  0  0  0  0  0  0  0
    4.9889    1.0884    0.0000 N   0  0  0  0  0  0  0  0  0  0  0  0
    7.7917   -1.1668    0.0000 N   0  0  0  0  0  0  0  0  0  0  0  0
    5.2619   -0.6668    0.0000 C   0  0  0  0  0  0  0  0  0  0  0  0
    6.2619   -0.6668    0.0000 C   0  0  0  0  0  0  0  0  0  0  0  0
    4.6783    0.1379    0.0000 C   0  0  0  0  0  0  0  0  0  0  0  0
    3.7320   -0.1668    0.0000 C   0  0  0  0  0  0  0  0  0  0  0  0
    3.7320   -1.1668    0.0000 C   0  0  0  0  0  0  0  0  0  0  0  0
    6.8455    0.1379    0.0000 C   0  0  0  0  0  0  0  0  0  0  0  0
    7.7960   -0.1727    0.0000 C   0  0  0  0  0  0  0  0  0  0  0  0
    6.8455   -1.4715    0.0000 C   0  0  0  0  0  0  0  0  0  0  0  0
    2.8660    0.3332    0.0000 C   0  0  0  0  0  0  0  0  0  0  0  0
    2.8660   -1.6668    0.0000 C   0  0  0  0  0  0  0  0  0  0  0  0
    6.6393    1.1164    0.0000 C   0  0  0  0  0  0  0  0  0  0  0  0
    2.0000   -0.1668    0.0000 C   0  0  0  0  0  0  0  0  0  0  0  0
    2.0000   -1.1668    0.0000 C   0  0  0  0  0  0  0  0  0  0  0  0
    8.5403    0.4951    0.0000 C   0  0  0  0  0  0  0  0  0  0  0  0
    7.3836    1.7843    0.0000 C   0  0  0  0  0  0  0  0  0  0  0  0
    8.3341    1.4736    0.0000 C   0  0  0  0  0  0  0  0  0  0  0  0
    4.8709   -2.0609    0.0000 H   0  0  0  0  0  0  0  0  0  0  0  0
    2.8660    0.9532    0.0000 H   0  0  0  0  0  0  0  0  0  0  0  0
    2.8660   -2.2868    0.0000 H   0  0  0  0  0  0  0  0  0  0  0  0
    6.0500    1.3090    0.0000 H   0  0  0  0  0  0  0  0  0  0  0  0
    5.5956    1.2163    0.0000 H   0  0  0  0  0  0  0  0  0  0  0  0
    1.4631    0.1432    0.0000 H   0  0  0  0  0  0  0  0  0  0  0  0
    1.4631   -1.4768    0.0000 H   0  0  0  0  0  0  0  0  0  0  0  0
    9.1296    0.3025    0.0000 H   0  0  0  0  0  0  0  0  0  0  0  0
    7.2557    2.3909    0.0000 H   0  0  0  0  0  0  0  0  0  0  0  0
    8.7956    1.8877    0.0000 H   0  0  0  0  0  0  0  0  0  0  0  0
    4.5137    2.4221    0.0000 H   0  0  0  0  0  0  0  0  0  0  0  0
  1 13  2  0  0  0  0
  2  4  1  0  0  0  0
  2 32  1  0  0  0  0
  3  6  1  0  0  0  0
  3 10  1  0  0  0  0
  3 22  1  0  0  0  0
  4  8  1  0  0  0  0
  4 26  1  0  0  0  0
  5 12  2  0  0  0  0
  5 13  1  0  0  0  0
  6  7  1  0  0  0  0
  6  8  2  0  0  0  0
  7 11  2  0  0  0  0
  7 13  1  0  0  0  0
  8  9  1  0  0  0  0
  9 10  1  0  0  0  0
  9 14  2  0  0  0  0
 10 15  2  0  0  0  0
 11 12  1  0  0  0  0
 11 16  1  0  0  0  0
 12 19  1  0  0  0  0
 14 17  1  0  0  0  0
 14 23  1  0  0  0  0
 15 18  1  0  0  0  0
 15 24  1  0  0  0  0
 16 20  2  0  0  0  0
 16 25  1  0  0  0  0
 17 18  2  0  0  0  0
 17 27  1  0  0  0  0
 18 28  1  0  0  0  0
 19 21  2  0  0  0  0
 19 29  1  0  0  0  0
 20 21  1  0  0  0  0
 20 30  1  0  0  0  0
 21 31  1  0  0  0  0
M  END
> <PUBCHEM_COMPOUND_CID>
5326739

> <PUBCHEM_COMPOUND_CANONICALIZED>
1

> <PUBCHEM_CACTVS_COMPLEXITY>
603

> <PUBCHEM_CACTVS_HBOND_ACCEPTOR>
3

> <PUBCHEM_CACTVS_HBOND_DONOR>
3

> <PUBCHEM_CACTVS_ROTATABLE_BOND>
2

> <PUBCHEM_CACTVS_SUBSKEYS>
AAADccB7MAAAAAAAAAAAAAAAAAAAAWIAAAAwQAAAAAAAAFgB8AAAHgAUCAAADAiBngAwwPLZkACoAyVyVACCgCAhEiAomSEwdNgIYPrA1dGUJAhgkADIyQcciICOAAAAAAACAAAAAAAAAAQAAAAAAAAAAA==

> <PUBCHEM_IUPAC_OPENEYE_NAME>
3-[3-(hydroxyamino)-1H-indol-2-yl]indol-2-one

> <PUBCHEM_IUPAC_CAS_NAME>
3-[3-(hydroxyamino)-1H-indol-2-yl]-2-indolone

> <PUBCHEM_IUPAC_NAME>
3-[3-(hydroxyamino)-1H-indol-2-yl]indol-2-one

> <PUBCHEM_IUPAC_SYSTEMATIC_NAME>
3-[3-(oxidanylamino)-1H-indol-2-yl]indol-2-one

> <PUBCHEM_IUPAC_TRADITIONAL_NAME>
3-[3-(hydroxyamino)-1H-indol-2-yl]indol-2-one

> <PUBCHEM_IUPAC_INCHI>
InChI=1S/C16H11N3O2/c20-16-13(9-5-1-3-7-11(9)18-16)15-14(19-21)10-6-2-4-8-12(10)17-15/h1-8,17,19,21H

> <PUBCHEM_IUPAC_INCHIKEY>
LDEWQRSYYHTQRA-UHFFFAOYSA-N

> <PUBCHEM_XLOGP3_AA>
2.2

> <PUBCHEM_EXACT_MASS>
277.085

> <PUBCHEM_MOLECULAR_FORMULA>
C16H11N3O2

> <PUBCHEM_MOLECULAR_WEIGHT>
277.283

> <PUBCHEM_OPENEYE_CAN_SMILES>
C1=CC=C2C(=C1)C(=C(N2)C3=C4C=CC=CC4=NC3=O)NO

> <PUBCHEM_OPENEYE_ISO_SMILES>
C1=CC=C2C(=C1)C(=C(N2)C3=C4C=CC=CC4=NC3=O)NO

> <PUBCHEM_CACTVS_TPSA>
77.5

> <PUBCHEM_MONOISOTOPIC_WEIGHT>
277.085

> <PUBCHEM_TOTAL_CHARGE>
0

> <PUBCHEM_HEAVY_ATOM_COUNT>
21

> <PUBCHEM_ATOM_DEF_STEREO_COUNT>
0

> <PUBCHEM_ATOM_UDEF_STEREO_COUNT>
0

> <PUBCHEM_BOND_DEF_STEREO_COUNT>
0

> <PUBCHEM_BOND_UDEF_STEREO_COUNT>
0

> <PUBCHEM_ISOTOPIC_ATOM_COUNT>
0

> <PUBCHEM_COMPONENT_COUNT>
1

> <PUBCHEM_CACTVS_TAUTO_COUNT>
114

> <PUBCHEM_COORDINATE_TYPE>
1
5
255

> <PUBCHEM_BONDANNOTATIONS>
10  15  8
11  12  8
11  16  8
12  19  8
14  17  8
15  18  8
16  20  8
17  18  8
19  21  8
20  21  8
3  10  8
3  6  8
6  8  8
8  9  8
9  10  8
9  14  8

$$$$
6419763
  -OEChem-11021604552D

 38 41  0     0  0  0  0  0  0999 V2000
    3.4030   -1.0055    0.0000 S   0  0  0  0  0  0  0  0  0  0  0  0
    8.5309   -2.0055    0.0000 O   0  0  0  0  0  0  0  0  0  0  0  0
    2.5369   -0.5055    0.0000 O   0  0  0  0  0  0  0  0  0  0  0  0
    2.5369   -1.5055    0.0000 O   0  0  0  0  0  0  0  0  0  0  0  0
    3.4030   -2.0055    0.0000 O   0  0  0  0  0  0  0  0  0  0  0  0
    5.1743    1.4205    0.0000 O   0  0  0  0  0  0  0  0  0  0  0  0
    8.2041    0.0545    0.0000 N   0  0  0  0  0  0  0  0  0  0  0  0
    6.9473   -2.8103    0.0000 N   0  0  0  0  0  0  0  0  0  0  0  0
    5.6743    0.5545    0.0000 N   0  0  0  0  0  0  0  0  0  0  0  0
    7.2579   -0.2503    0.0000 C   0  0  0  0  0  0  0  0  0  0  0  0
    6.9473   -1.2008    0.0000 C   0  0  0  0  0  0  0  0  0  0  0  0
    6.0010   -1.5055    0.0000 C   0  0  0  0  0  0  0  0  0  0  0  0
    6.6743    0.5545    0.0000 C   0  0  0  0  0  0  0  0  0  0  0  0
    7.2579    1.3592    0.0000 C   0  0  0  0  0  0  0  0  0  0  0  0
    8.2084    1.0485    0.0000 C   0  0  0  0  0  0  0  0  0  0  0  0
    6.0010   -2.5055    0.0000 C   0  0  0  0  0  0  0  0  0  0  0  0
    5.1350   -1.0055    0.0000 C   0  0  0  0  0  0  0  0  0  0  0  0
    7.5309   -2.0055    0.0000 C   0  0  0  0  0  0  0  0  0  0  0  0
    4.2690   -1.5055    0.0000 C   0  0  0  0  0  0  0  0  0  0  0  0
    5.1350   -3.0055    0.0000 C   0  0  0  0  0  0  0  0  0  0  0  0
    7.0517    2.3377    0.0000 C   0  0  0  0  0  0  0  0  0  0  0  0
    8.9527    1.7164    0.0000 C   0  0  0  0  0  0  0  0  0  0  0  0
    4.2690   -2.5055    0.0000 C   0  0  0  0  0  0  0  0  0  0  0  0
    7.7960    3.0055    0.0000 C   0  0  0  0  0  0  0  0  0  0  0  0
    8.7465    2.6949    0.0000 C   0  0  0  0  0  0  0  0  0  0  0  0
    8.7045   -0.3117    0.0000 H   0  0  0  0  0  0  0  0  0  0  0  0
    5.1350   -0.3855    0.0000 H   0  0  0  0  0  0  0  0  0  0  0  0
    5.1350   -3.6255    0.0000 H   0  0  0  0  0  0  0  0  0  0  0  0
    6.4624    2.5303    0.0000 H   0  0  0  0  0  0  0  0  0  0  0  0
    9.5421    1.5238    0.0000 H   0  0  0  0  0  0  0  0  0  0  0  0
    3.7320   -2.8155    0.0000 H   0  0  0  0  0  0  0  0  0  0  0  0
    5.3643    0.0175    0.0000 H   0  0  0  0  0  0  0  0  0  0  0  0
    7.6682    3.6122    0.0000 H   0  0  0  0  0  0  0  0  0  0  0  0
    9.2080    3.1089    0.0000 H   0  0  0  0  0  0  0  0  0  0  0  0
    2.8660   -2.3155    0.0000 H   0  0  0  0  0  0  0  0  0  0  0  0
    2.0000   -1.1955    0.0000 H   0  0  0  0  0  0  0  0  0  0  0  0
    2.5369    0.1145    0.0000 H   0  0  0  0  0  0  0  0  0  0  0  0
    4.5543    1.4205    0.0000 H   0  0  0  0  0  0  0  0  0  0  0  0
  1  3  1  0  0  0  0
  1  4  1  0  0  0  0
  1  5  1  0  0  0  0
  1 19  1  0  0  0  0
  2 18  2  0  0  0  0
  3 37  1  0  0  0  0
  4 36  1  0  0  0  0
  5 35  1  0  0  0  0
  6  9  1  0  0  0  0
  6 38  1  0  0  0  0
  7 10  1  0  0  0  0
  7 15  1  0  0  0  0
  7 26  1  0  0  0  0
  8 16  2  0  0  0  0
  8 18  1  0  0  0  0
  9 13  1  0  0  0  0
  9 32  1  0  0  0  0
 10 11  1  0  0  0  0
 10 13  2  0  0  0  0
 11 12  2  0  0  0  0
 11 18  1  0  0  0  0
 12 16  1  0  0  0  0
 12 17  1  0  0  0  0
 13 14  1  0  0  0  0
 14 15  1  0  0  0  0
 14 21  2  0  0  0  0
 15 22  2  0  0  0  0
 16 20  1  0  0  0  0
 17 19  2  0  0  0  0
 17 27  1  0  0  0  0
 19 23  1  0  0  0  0
 20 23  2  0  0  0  0
 20 28  1  0  0  0  0
 21 24  1  0  0  0  0
 21 29  1  0  0  0  0
 22 25  1  0  0  0  0
 22 30  1  0  0  0  0
 23 31  1  0  0  0  0
 24 25  2  0  0  0  0
 24 33  1  0  0  0  0
 25 34  1  0  0  0  0
M  END
> <PUBCHEM_COMPOUND_CID>
6419763

> <PUBCHEM_COMPOUND_CANONICALIZED>
1

> <PUBCHEM_CACTVS_COMPLEXITY>
737

> <PUBCHEM_CACTVS_HBOND_ACCEPTOR>
7

> <PUBCHEM_CACTVS_HBOND_DONOR>
6

> <PUBCHEM_CACTVS_ROTATABLE_BOND>
3

> <PUBCHEM_CACTVS_SUBSKEYS>
AAADccB7OABAAAAAAAAAAAAAAAAAAWIAAAAwQAAAAAAAAFgB8AAAHgQUCAAADAiB3gAwwPLZkIKoAyVyVACCgCAhEiAomSEwdNgIYPrA1dGUJAhgkADIyQcciICOAAAAAAACAAAAAAAAAAQAAAAAAAAAAA==

> <PUBCHEM_IUPAC_OPENEYE_NAME>
3-[3-(hydroxyamino)-1H-indol-2-yl]-5-(trihydroxy-$l^{4}-sulfanyl)indol-2-one

> <PUBCHEM_IUPAC_CAS_NAME>
3-[3-(hydroxyamino)-1H-indol-2-yl]-5-(trihydroxy-$l^{4}-sulfanyl)-2-indolone

> <PUBCHEM_IUPAC_NAME>
3-[3-(hydroxyamino)-1H-indol-2-yl]-5-(trihydroxy-$l^{4}-sulfanyl)indol-2-one

> <PUBCHEM_IUPAC_SYSTEMATIC_NAME>
3-[3-(oxidanylamino)-1H-indol-2-yl]-5-[tris(oxidanyl)-$l^{4}-sulfanyl]indol-2-one

> <PUBCHEM_IUPAC_TRADITIONAL_NAME>
3-[3-(hydroxyamino)-1H-indol-2-yl]-5-trihydroxysulfuranyl-indol-2-one

> <PUBCHEM_IUPAC_INCHI>
InChI=1S/C16H13N3O5S/c20-16-13(10-7-8(25(22,23)24)5-6-12(10)18-16)15-14(19-21)9-3-1-2-4-11(9)17-15/h1-7,17,19,21-24H

> <PUBCHEM_IUPAC_INCHIKEY>
BGAOAHRPZMMRNO-UHFFFAOYSA-N

> <PUBCHEM_XLOGP3_AA>
1

> <PUBCHEM_EXACT_MASS>
359.058

> <PUBCHEM_MOLECULAR_FORMULA>
C16H13N3O5S

> <PUBCHEM_MOLECULAR_WEIGHT>
359.356

> <PUBCHEM_OPENEYE_CAN_SMILES>
C1=CC=C2C(=C1)C(=C(N2)C3=C4C=C(C=CC4=NC3=O)S(O)(O)O)NO

> <PUBCHEM_OPENEYE_ISO_SMILES>
C1=CC=C2C(=C1)C(=C(N2)C3=C4C=C(C=CC4=NC3=O)S(O)(O)O)NO

> <PUBCHEM_CACTVS_TPSA>
139

> <PUBCHEM_MONOISOTOPIC_WEIGHT>
359.058

> <PUBCHEM_TOTAL_CHARGE>
0

> <PUBCHEM_HEAVY_ATOM_COUNT>
25

> <PUBCHEM_ATOM_DEF_STEREO_COUNT>
0

> <PUBCHEM_ATOM_UDEF_STEREO_COUNT>
0

> <PUBCHEM_BOND_DEF_STEREO_COUNT>
0

> <PUBCHEM_BOND_UDEF_STEREO_COUNT>
0

> <PUBCHEM_ISOTOPIC_ATOM_COUNT>
0

> <PUBCHEM_COMPONENT_COUNT>
1

> <PUBCHEM_CACTVS_TAUTO_COUNT>
78

> <PUBCHEM_COORDINATE_TYPE>
1
5
255

> <PUBCHEM_BONDANNOTATIONS>
10  13  8
12  16  8
12  17  8
13  14  8
14  15  8
14  21  8
15  22  8
16  20  8
17  19  8
19  23  8
20  23  8
21  24  8
22  25  8
24  25  8
7  10  8
7  15  8

$$$$
6419764
  -OEChem-11021604552D

 46 49  0     1  0  0  0  0  0999 V2000
    4.3211   -0.2734    0.0000 O   0  0  0  0  0  0  0  0  0  0  0  0
    5.2531    2.5782    0.0000 O   0  0  0  0  0  0  0  0  0  0  0  0
    6.5348   -4.5282    0.0000 O   0  0  0  0  0  0  0  0  0  0  0  0
    3.9174    4.0668    0.0000 O   0  0  0  0  0  0  0  0  0  0  0  0
    4.6783   -3.5777    0.0000 N   0  0  0  0  0  0  0  0  0  0  0  0
    4.9889   -1.0177    0.0000 N   0  0  0  0  0  0  0  0  0  0  0  0
    7.7917   -3.2730    0.0000 N   0  0  0  0  0  0  0  0  0  0  0  0
    5.2619   -2.7730    0.0000 C   0  0  0  0  0  0  0  0  0  0  0  0
    4.6783   -1.9682    0.0000 C   0  0  0  0  0  0  0  0  0  0  0  0
    3.7320   -2.2730    0.0000 C   0  0  0  0  0  0  0  0  0  0  0  0
    3.7320   -3.2730    0.0000 C   0  0  0  0  0  0  0  0  0  0  0  0
    6.2619   -2.7730    0.0000 C   0  0  0  0  0  0  0  0  0  0  0  0
    6.8455   -1.9682    0.0000 C   0  0  0  0  0  0  0  0  0  0  0  0
    2.8660   -1.7730    0.0000 C   0  0  0  0  0  0  0  0  0  0  0  0
    3.9639    1.4214    0.0000 C   0  0  0  0  0  0  0  0  0  0  0  0
    7.7960   -2.2789    0.0000 C   0  0  0  0  0  0  0  0  0  0  0  0
    2.8660   -3.7730    0.0000 C   0  0  0  0  0  0  0  0  0  0  0  0
    6.8455   -3.5777    0.0000 C   0  0  0  0  0  0  0  0  0  0  0  0
    4.6318    0.6771    0.0000 C   0  0  0  0  0  0  0  0  0  0  0  0
    4.2746    2.3719    0.0000 C   0  0  3  0  0  0  0  0  0  0  0  0
    6.6393   -0.9897    0.0000 C   0  0  0  0  0  0  0  0  0  0  0  0
    2.0000   -2.2730    0.0000 C   0  0  0  0  0  0  0  0  0  0  0  0
    2.0000   -3.2730    0.0000 C   0  0  0  0  0  0  0  0  0  0  0  0
    8.5403   -1.6111    0.0000 C   0  0  0  0  0  0  0  0  0  0  0  0
    3.6067    3.1162    0.0000 C   0  0  0  0  0  0  0  0  0  0  0  0
    7.3836   -0.3219    0.0000 C   0  0  0  0  0  0  0  0  0  0  0  0
    8.3341   -0.6325    0.0000 C   0  0  0  0  0  0  0  0  0  0  0  0
    4.8709   -4.1670    0.0000 H   0  0  0  0  0  0  0  0  0  0  0  0
    5.5956   -0.8899    0.0000 H   0  0  0  0  0  0  0  0  0  0  0  0
    3.4170    1.7134    0.0000 H   0  0  0  0  0  0  0  0  0  0  0  0
    3.5814    0.9335    0.0000 H   0  0  0  0  0  0  0  0  0  0  0  0
    2.8660   -1.1530    0.0000 H   0  0  0  0  0  0  0  0  0  0  0  0
    2.8660   -4.3930    0.0000 H   0  0  0  0  0  0  0  0  0  0  0  0
    4.6886    1.9105    0.0000 H   0  0  0  0  0  0  0  0  0  0  0  0
    5.1787    0.3851    0.0000 H   0  0  0  0  0  0  0  0  0  0  0  0
    5.0143    1.1650    0.0000 H   0  0  0  0  0  0  0  0  0  0  0  0
    6.0500   -0.7971    0.0000 H   0  0  0  0  0  0  0  0  0  0  0  0
    1.4631   -1.9630    0.0000 H   0  0  0  0  0  0  0  0  0  0  0  0
    1.4631   -3.5830    0.0000 H   0  0  0  0  0  0  0  0  0  0  0  0
    9.1296   -1.8037    0.0000 H   0  0  0  0  0  0  0  0  0  0  0  0
    3.0598    3.4082    0.0000 H   0  0  0  0  0  0  0  0  0  0  0  0
    3.2242    2.6283    0.0000 H   0  0  0  0  0  0  0  0  0  0  0  0
    7.2557    0.2848    0.0000 H   0  0  0  0  0  0  0  0  0  0  0  0
    8.7956   -0.2185    0.0000 H   0  0  0  0  0  0  0  0  0  0  0  0
    5.4457    3.1675    0.0000 H   0  0  0  0  0  0  0  0  0  0  0  0
    3.5033    4.5282    0.0000 H   0  0  0  0  0  0  0  0  0  0  0  0
  1  6  1  0  0  0  0
  1 19  1  0  0  0  0
  2 20  1  0  0  0  0
  2 45  1  0  0  0  0
  3 18  2  0  0  0  0
  4 25  1  0  0  0  0
  4 46  1  0  0  0  0
  5  8  1  0  0  0  0
  5 11  1  0  0  0  0
  5 28  1  0  0  0  0
  6  9  1  0  0  0  0
  6 29  1  0  0  0  0
  7 16  2  0  0  0  0
  7 18  1  0  0  0  0
  8  9  2  0  0  0  0
  8 12  1  0  0  0  0
  9 10  1  0  0  0  0
 10 11  1  0  0  0  0
 10 14  2  0  0  0  0
 11 17  2  0  0  0  0
 12 13  2  0  0  0  0
 12 18  1  0  0  0  0
 13 16  1  0  0  0  0
 13 21  1  0  0  0  0
 14 22  1  0  0  0  0
 14 32  1  0  0  0  0
 15 19  1  0  0  0  0
 15 20  1  0  0  0  0
 15 30  1  0  0  0  0
 15 31  1  0  0  0  0
 16 24  1  0  0  0  0
 17 23  1  0  0  0  0
 17 33  1  0  0  0  0
 19 35  1  0  0  0  0
 19 36  1  0  0  0  0
 20 25  1  0  0  0  0
 20 34  1  0  0  0  0
 21 26  2  0  0  0  0
 21 37  1  0  0  0  0
 22 23  2  0  0  0  0
 22 38  1  0  0  0  0
 23 39  1  0  0  0  0
 24 27  2  0  0  0  0
 24 40  1  0  0  0  0
 25 41  1  0  0  0  0
 25 42  1  0  0  0  0
 26 27  1  0  0  0  0
 26 43  1  0  0  0  0
 27 44  1  0  0  0  0
M  END
> <PUBCHEM_COMPOUND_CID>
6419764

> <PUBCHEM_COMPOUND_CANONICALIZED>
1

> <PUBCHEM_CACTVS_COMPLEXITY>
712

> <PUBCHEM_CACTVS_HBOND_ACCEPTOR>
5

> <PUBCHEM_CACTVS_HBOND_DONOR>
4

> <PUBCHEM_CACTVS_ROTATABLE_BOND>
7

> <PUBCHEM_CACTVS_SUBSKEYS>
AAADceB7OAAAAAAAAAAAAAAAAAAAAWIAAAAwQAAAAAAAAFgB8AAAHgAUCAAADByhngIwwPLZkgCoAyVyVACCgCAhEiAomSEwdNgJcPrA1dGUZAhlkADJyQdciICOAAAAAAACAAAAAAAAAAQAAAAAAAAAAA==

> <PUBCHEM_IUPAC_OPENEYE_NAME>
3-[3-(3,4-dihydroxybutoxyamino)-1H-indol-2-yl]indol-2-one

> <PUBCHEM_IUPAC_CAS_NAME>
3-[3-(3,4-dihydroxybutoxyamino)-1H-indol-2-yl]-2-indolone

> <PUBCHEM_IUPAC_NAME>
3-[3-(3,4-dihydroxybutoxyamino)-1H-indol-2-yl]indol-2-one

> <PUBCHEM_IUPAC_SYSTEMATIC_NAME>
3-[3-[3,4-bis(oxidanyl)butoxyamino]-1H-indol-2-yl]indol-2-one

> <PUBCHEM_IUPAC_TRADITIONAL_NAME>
3-[3-(3,4-dihydroxybutoxyamino)-1H-indol-2-yl]indol-2-one

> <PUBCHEM_IUPAC_INCHI>
InChI=1S/C20H19N3O4/c24-11-12(25)9-10-27-23-18-14-6-2-4-8-16(14)21-19(18)17-13-5-1-3-7-15(13)22-20(17)26/h1-8,12,21,23-25H,9-11H2

> <PUBCHEM_IUPAC_INCHIKEY>
CKLAPOFDFZKCPB-UHFFFAOYSA-N

> <PUBCHEM_XLOGP3_AA>
1.8

> <PUBCHEM_EXACT_MASS>
365.138

> <PUBCHEM_MOLECULAR_FORMULA>
C20H19N3O4

> <PUBCHEM_MOLECULAR_WEIGHT>
365.389

> <PUBCHEM_OPENEYE_CAN_SMILES>
C1=CC=C2C(=C1)C(=C(N2)C3=C4C=CC=CC4=NC3=O)NOCCC(CO)O

> <PUBCHEM_OPENEYE_ISO_SMILES>
C1=CC=C2C(=C1)C(=C(N2)C3=C4C=CC=CC4=NC3=O)NOCCC(CO)O

> <PUBCHEM_CACTVS_TPSA>
107

> <PUBCHEM_MONOISOTOPIC_WEIGHT>
365.138

> <PUBCHEM_TOTAL_CHARGE>
0

> <PUBCHEM_HEAVY_ATOM_COUNT>
27

> <PUBCHEM_ATOM_DEF_STEREO_COUNT>
0

> <PUBCHEM_ATOM_UDEF_STEREO_COUNT>
1

> <PUBCHEM_BOND_DEF_STEREO_COUNT>
0

> <PUBCHEM_BOND_UDEF_STEREO_COUNT>
0

> <PUBCHEM_ISOTOPIC_ATOM_COUNT>
0

> <PUBCHEM_COMPONENT_COUNT>
1

> <PUBCHEM_CACTVS_TAUTO_COUNT>
33

> <PUBCHEM_COORDINATE_TYPE>
1
5
255

> <PUBCHEM_BONDANNOTATIONS>
10  11  8
10  14  8
11  17  8
13  16  8
13  21  8
14  22  8
16  24  8
17  23  8
20  2  3
21  26  8
22  23  8
24  27  8
26  27  8
5  11  8
5  8  8
8  9  8
9  10  8

$$$$
6419765
  -OEChem-11021604552D

 29 30  0     0  0  0  0  0  0999 V2000
    5.2558    0.2784    0.0000 S   0  0  0  0  0  0  0  0  0  0  0  0
    3.7657    2.9520    0.0000 O   0  0  0  0  0  0  0  0  0  0  0  0
    6.9358    1.0204    0.0000 O   0  0  0  0  0  0  0  0  0  0  0  0
    5.5345    2.0385    0.0000 N   0  0  0  0  0  0  0  0  0  0  0  0
    2.3644    1.9340    0.0000 N   0  0  0  0  0  0  0  0  0  0  0  0
    7.1168    2.7430    0.0000 N   0  0  0  0  0  0  0  0  0  0  0  0
    4.4467   -0.3094    0.0000 C   0  0  0  0  0  0  0  0  0  0  0  0
    3.9467    1.2295    0.0000 C   0  0  0  0  0  0  0  0  0  0  0  0
    4.4467   -1.3094    0.0000 C   0  0  0  0  0  0  0  0  0  0  0  0
    3.6377    0.2784    0.0000 C   0  0  0  0  0  0  0  0  0  0  0  0
    4.9467    1.2295    0.0000 C   0  0  0  0  0  0  0  0  0  0  0  0
    3.5807   -1.8094    0.0000 C   0  0  0  0  0  0  0  0  0  0  0  0
    5.3128   -1.8094    0.0000 C   0  0  0  0  0  0  0  0  0  0  0  0
    3.3590    2.0385    0.0000 C   0  0  0  0  0  0  0  0  0  0  0  0
    3.5807   -2.8094    0.0000 C   0  0  0  0  0  0  0  0  0  0  0  0
    5.3128   -2.8094    0.0000 C   0  0  0  0  0  0  0  0  0  0  0  0
    4.4467   -3.3094    0.0000 C   0  0  0  0  0  0  0  0  0  0  0  0
    6.5290    1.9340    0.0000 C   0  0  0  0  0  0  0  0  0  0  0  0
    3.0481    0.0868    0.0000 H   0  0  0  0  0  0  0  0  0  0  0  0
    3.0438   -1.4994    0.0000 H   0  0  0  0  0  0  0  0  0  0  0  0
    5.8497   -1.4994    0.0000 H   0  0  0  0  0  0  0  0  0  0  0  0
    5.2823    2.6049    0.0000 H   0  0  0  0  0  0  0  0  0  0  0  0
    3.0438   -3.1194    0.0000 H   0  0  0  0  0  0  0  0  0  0  0  0
    5.8497   -3.1194    0.0000 H   0  0  0  0  0  0  0  0  0  0  0  0
    4.4467   -3.9294    0.0000 H   0  0  0  0  0  0  0  0  0  0  0  0
    2.0000    2.4356    0.0000 H   0  0  0  0  0  0  0  0  0  0  0  0
    2.1122    1.3676    0.0000 H   0  0  0  0  0  0  0  0  0  0  0  0
    7.7334    2.6782    0.0000 H   0  0  0  0  0  0  0  0  0  0  0  0
    6.8646    3.3094    0.0000 H   0  0  0  0  0  0  0  0  0  0  0  0
  1  7  1  0  0  0  0
  1 11  1  0  0  0  0
  2 14  2  0  0  0  0
  3 18  2  0  0  0  0
  4 11  1  0  0  0  0
  4 18  1  0  0  0  0
  4 22  1  0  0  0  0
  5 14  1  0  0  0  0
  5 26  1  0  0  0  0
  5 27  1  0  0  0  0
  6 18  1  0  0  0  0
  6 28  1  0  0  0  0
  6 29  1  0  0  0  0
  7  9  1  0  0  0  0
  7 10  2  0  0  0  0
  8 10  1  0  0  0  0
  8 11  2  0  0  0  0
  8 14  1  0  0  0  0
  9 12  2  0  0  0  0
  9 13  1  0  0  0  0
 10 19  1  0  0  0  0
 12 15  1  0  0  0  0
 12 20  1  0  0  0  0
 13 16  2  0  0  0  0
 13 21  1  0  0  0  0
 15 17  2  0  0  0  0
 15 23  1  0  0  0  0
 16 17  1  0  0  0  0
 16 24  1  0  0  0  0
 17 25  1  0  0  0  0
M  END
> <PUBCHEM_COMPOUND_CID>
6419765

> <PUBCHEM_COMPOUND_CANONICALIZED>
1

> <PUBCHEM_CACTVS_COMPLEXITY>
331

> <PUBCHEM_CACTVS_HBOND_ACCEPTOR>
3

> <PUBCHEM_CACTVS_HBOND_DONOR>
3

> <PUBCHEM_CACTVS_ROTATABLE_BOND>
3

> <PUBCHEM_CACTVS_SUBSKEYS>
AAADccBzMABAAAAAAAAAAAAAAAAAASAAAAAwAAAAAAAAAAABwAAAHgQQAAAADACB2AAxgYLAAAiMAiFSUACDAIBlCBlIiBkARMiIIDrg1ZGEIYhghAJoyecYiMCOAAAAAAAAAAAAAAAAAAAAAAAAAAAAAA==

> <PUBCHEM_IUPAC_OPENEYE_NAME>
5-phenyl-2-ureido-thiophene-3-carboxamide

> <PUBCHEM_IUPAC_CAS_NAME>
2-(carbamoylamino)-5-phenyl-3-thiophenecarboxamide

> <PUBCHEM_IUPAC_NAME>
2-(carbamoylamino)-5-phenylthiophene-3-carboxamide

> <PUBCHEM_IUPAC_SYSTEMATIC_NAME>
2-(aminocarbonylamino)-5-phenyl-thiophene-3-carboxamide

> <PUBCHEM_IUPAC_TRADITIONAL_NAME>
5-phenyl-2-ureido-thiophene-3-carboxamide

> <PUBCHEM_IUPAC_INCHI>
InChI=1S/C12H11N3O2S/c13-10(16)8-6-9(7-4-2-1-3-5-7)18-11(8)15-12(14)17/h1-6H,(H2,13,16)(H3,14,15,17)

> <PUBCHEM_IUPAC_INCHIKEY>
PSVUSJKZJQMCSP-UHFFFAOYSA-N

> <PUBCHEM_XLOGP3_AA>
1.6

> <PUBCHEM_EXACT_MASS>
261.057

> <PUBCHEM_MOLECULAR_FORMULA>
C12H11N3O2S

> <PUBCHEM_MOLECULAR_WEIGHT>
261.299

> <PUBCHEM_OPENEYE_CAN_SMILES>
C1=CC=C(C=C1)C2=CC(=C(S2)NC(=O)N)C(=O)N

> <PUBCHEM_OPENEYE_ISO_SMILES>
C1=CC=C(C=C1)C2=CC(=C(S2)NC(=O)N)C(=O)N

> <PUBCHEM_CACTVS_TPSA>
126

> <PUBCHEM_MONOISOTOPIC_WEIGHT>
261.057

> <PUBCHEM_TOTAL_CHARGE>
0

> <PUBCHEM_HEAVY_ATOM_COUNT>
18

> <PUBCHEM_ATOM_DEF_STEREO_COUNT>
0

> <PUBCHEM_ATOM_UDEF_STEREO_COUNT>
0

> <PUBCHEM_BOND_DEF_STEREO_COUNT>
0

> <PUBCHEM_BOND_UDEF_STEREO_COUNT>
0

> <PUBCHEM_ISOTOPIC_ATOM_COUNT>
0

> <PUBCHEM_COMPONENT_COUNT>
1

> <PUBCHEM_CACTVS_TAUTO_COUNT>
12

> <PUBCHEM_COORDINATE_TYPE>
1
5
255

> <PUBCHEM_BONDANNOTATIONS>
1  11  8
1  7  8
12  15  8
13  16  8
15  17  8
16  17  8
7  10  8
8  10  8
8  11  8
9  12  8
9  13  8

$$$$
5281614
  -OEChem-11021604552D

 31 33  0     0  0  0  0  0  0999 V2000
    6.8671    0.0950    0.0000 O   0  0  0  0  0  0  0  0  0  0  0  0
    5.1350   -1.9050    0.0000 O   0  0  0  0  0  0  0  0  0  0  0  0
    6.8671   -2.9050    0.0000 O   0  0  0  0  0  0  0  0  0  0  0  0
   10.3972    0.1192    0.0000 O   0  0  0  0  0  0  0  0  0  0  0  0
    4.2690    2.5950    0.0000 O   0  0  0  0  0  0  0  0  0  0  0  0
    2.5369    1.5950    0.0000 O   0  0  0  0  0  0  0  0  0  0  0  0
    6.0010   -0.4050    0.0000 C   0  0  0  0  0  0  0  0  0  0  0  0
    7.7331   -1.4050    0.0000 C   0  0  0  0  0  0  0  0  0  0  0  0
    7.7331   -0.4050    0.0000 C   0  0  0  0  0  0  0  0  0  0  0  0
    5.1350    0.0950    0.0000 C   0  0  0  0  0  0  0  0  0  0  0  0
    6.0010   -1.4050    0.0000 C   0  0  0  0  0  0  0  0  0  0  0  0
    6.8671   -1.9050    0.0000 C   0  0  0  0  0  0  0  0  0  0  0  0
    8.6270   -1.9397    0.0000 C   0  0  0  0  0  0  0  0  0  0  0  0
    8.6270    0.1297    0.0000 C   0  0  0  0  0  0  0  0  0  0  0  0
    5.1350    1.0950    0.0000 C   0  0  0  0  0  0  0  0  0  0  0  0
    4.2690   -0.4050    0.0000 C   0  0  0  0  0  0  0  0  0  0  0  0
    9.5331   -0.3842    0.0000 C   0  0  0  0  0  0  0  0  0  0  0  0
    9.5331   -1.4258    0.0000 C   0  0  0  0  0  0  0  0  0  0  0  0
    4.2690    1.5950    0.0000 C   0  0  0  0  0  0  0  0  0  0  0  0
    3.4030    0.0950    0.0000 C   0  0  0  0  0  0  0  0  0  0  0  0
    3.4030    1.0950    0.0000 C   0  0  0  0  0  0  0  0  0  0  0  0
    8.6199   -2.5596    0.0000 H   0  0  0  0  0  0  0  0  0  0  0  0
    8.6199    0.7496    0.0000 H   0  0  0  0  0  0  0  0  0  0  0  0
    5.6720    1.4050    0.0000 H   0  0  0  0  0  0  0  0  0  0  0  0
    4.2690   -1.0250    0.0000 H   0  0  0  0  0  0  0  0  0  0  0  0
   10.0688   -1.7379    0.0000 H   0  0  0  0  0  0  0  0  0  0  0  0
    2.8660   -0.2150    0.0000 H   0  0  0  0  0  0  0  0  0  0  0  0
    5.1350   -2.5250    0.0000 H   0  0  0  0  0  0  0  0  0  0  0  0
   10.9353   -0.1888    0.0000 H   0  0  0  0  0  0  0  0  0  0  0  0
    3.7320    2.9050    0.0000 H   0  0  0  0  0  0  0  0  0  0  0  0
    2.0000    1.2850    0.0000 H   0  0  0  0  0  0  0  0  0  0  0  0
  1  7  1  0  0  0  0
  1  9  1  0  0  0  0
  2 11  1  0  0  0  0
  2 28  1  0  0  0  0
  3 12  2  0  0  0  0
  4 17  1  0  0  0  0
  4 29  1  0  0  0  0
  5 19  1  0  0  0  0
  5 30  1  0  0  0  0
  6 21  1  0  0  0  0
  6 31  1  0  0  0  0
  7 10  1  0  0  0  0
  7 11  2  0  0  0  0
  8  9  2  0  0  0  0
  8 12  1  0  0  0  0
  8 13  1  0  0  0  0
  9 14  1  0  0  0  0
 10 15  2  0  0  0  0
 10 16  1  0  0  0  0
 11 12  1  0  0  0  0
 13 18  2  0  0  0  0
 13 22  1  0  0  0  0
 14 17  2  0  0  0  0
 14 23  1  0  0  0  0
 15 19  1  0  0  0  0
 15 24  1  0  0  0  0
 16 20  2  0  0  0  0
 16 25  1  0  0  0  0
 17 18  1  0  0  0  0
 18 26  1  0  0  0  0
 19 21  2  0  0  0  0
 20 21  1  0  0  0  0
 20 27  1  0  0  0  0
M  END
> <PUBCHEM_COMPOUND_CID>
5281614

> <PUBCHEM_COMPOUND_CANONICALIZED>
1

> <PUBCHEM_CACTVS_COMPLEXITY>
459

> <PUBCHEM_CACTVS_HBOND_ACCEPTOR>
6

> <PUBCHEM_CACTVS_HBOND_DONOR>
4

> <PUBCHEM_CACTVS_ROTATABLE_BOND>
1

> <PUBCHEM_CACTVS_SUBSKEYS>
AAADccBwOAAAAAAAAAAAAAAAAAAAAAAAAAAwYIAAAAAAAACBQAAAGgAACAAADASAmAAwBoAABgCIAqBSAAICCAAkIAAIiAFGiMgNJzaGNRqCeWGl4BUJuYfI7LzOIAABCAAIQABAAAIQABCAAAAAAAAAAA==

> <PUBCHEM_IUPAC_OPENEYE_NAME>
2-(3,4-dihydroxyphenyl)-3,7-dihydroxy-chromen-4-one

> <PUBCHEM_IUPAC_CAS_NAME>
2-(3,4-dihydroxyphenyl)-3,7-dihydroxy-1-benzopyran-4-one

> <PUBCHEM_IUPAC_NAME>
2-(3,4-dihydroxyphenyl)-3,7-dihydroxychromen-4-one

> <PUBCHEM_IUPAC_SYSTEMATIC_NAME>
2-[3,4-bis(oxidanyl)phenyl]-3,7-bis(oxidanyl)chromen-4-one

> <PUBCHEM_IUPAC_TRADITIONAL_NAME>
2-(3,4-dihydroxyphenyl)-3,7-dihydroxy-chromone

> <PUBCHEM_IUPAC_INCHI>
InChI=1S/C15H10O6/c16-8-2-3-9-12(6-8)21-15(14(20)13(9)19)7-1-4-10(17)11(18)5-7/h1-6,16-18,20H

> <PUBCHEM_IUPAC_INCHIKEY>
XHEFDIBZLJXQHF-UHFFFAOYSA-N

> <PUBCHEM_XLOGP3_AA>
2

> <PUBCHEM_EXACT_MASS>
286.048

> <PUBCHEM_MOLECULAR_FORMULA>
C15H10O6

> <PUBCHEM_MOLECULAR_WEIGHT>
286.239

> <PUBCHEM_OPENEYE_CAN_SMILES>
C1=CC(=C(C=C1C2=C(C(=O)C3=C(O2)C=C(C=C3)O)O)O)O

> <PUBCHEM_OPENEYE_ISO_SMILES>
C1=CC(=C(C=C1C2=C(C(=O)C3=C(O2)C=C(C=C3)O)O)O)O

> <PUBCHEM_CACTVS_TPSA>
107

> <PUBCHEM_MONOISOTOPIC_WEIGHT>
286.048

> <PUBCHEM_TOTAL_CHARGE>
0

> <PUBCHEM_HEAVY_ATOM_COUNT>
21

> <PUBCHEM_ATOM_DEF_STEREO_COUNT>
0

> <PUBCHEM_ATOM_UDEF_STEREO_COUNT>
0

> <PUBCHEM_BOND_DEF_STEREO_COUNT>
0

> <PUBCHEM_BOND_UDEF_STEREO_COUNT>
0

> <PUBCHEM_ISOTOPIC_ATOM_COUNT>
0

> <PUBCHEM_COMPONENT_COUNT>
1

> <PUBCHEM_CACTVS_TAUTO_COUNT>
211

> <PUBCHEM_COORDINATE_TYPE>
1
5
255

> <PUBCHEM_BONDANNOTATIONS>
1  7  8
1  9  8
10  15  8
10  16  8
11  12  8
13  18  8
14  17  8
15  19  8
16  20  8
17  18  8
19  21  8
20  21  8
7  11  8
8  12  8
8  13  8
8  9  8
9  14  8

$$$$
3213
  -OEChem-11021604552D

 33 36  0     0  0  0  0  0  0999 V2000
    4.5124    1.3037    0.0000 N   0  0  0  0  0  0  0  0  0  0  0  0
    8.3618   -1.3408    0.0000 N   0  0  0  0  0  0  0  0  0  0  0  0
    5.0091   -0.2295    0.0000 C   0  0  0  0  0  0  0  0  0  0  0  0
    5.3181    0.7215    0.0000 C   0  0  0  0  0  0  0  0  0  0  0  0
    5.6782   -0.9727    0.0000 C   0  0  0  0  0  0  0  0  0  0  0  0
    4.0150   -0.2270    0.0000 C   0  0  0  0  0  0  0  0  0  0  0  0
    6.2962    0.9294    0.0000 C   0  0  0  0  0  0  0  0  0  0  0  0
    6.9654    0.1863    0.0000 C   0  0  0  0  0  0  0  0  0  0  0  0
    6.6564   -0.7648    0.0000 C   0  0  0  0  0  0  0  0  0  0  0  0
    3.7086    0.7187    0.0000 C   0  0  0  0  0  0  0  0  0  0  0  0
    5.3692   -1.9237    0.0000 C   0  0  0  0  0  0  0  0  0  0  0  0
    3.3334   -1.0065    0.0000 C   0  0  0  0  0  0  0  0  0  0  0  0
    6.6053    1.8805    0.0000 C   0  0  0  0  0  0  0  0  0  0  0  0
    2.6994    0.9505    0.0000 C   0  0  0  0  0  0  0  0  0  0  0  0
    7.9808    0.4185    0.0000 C   0  0  0  0  0  0  0  0  0  0  0  0
    7.3413   -1.5495    0.0000 C   0  0  0  0  0  0  0  0  0  0  0  0
    2.3191   -0.7981    0.0000 C   0  0  0  0  0  0  0  0  0  0  0  0
    2.0000    0.1870    0.0000 C   0  0  0  0  0  0  0  0  0  0  0  0
    8.6837   -0.3501    0.0000 C   0  0  0  0  0  0  0  0  0  0  0  0
    4.5113    1.9237    0.0000 H   0  0  0  0  0  0  0  0  0  0  0  0
    4.7795   -1.7322    0.0000 H   0  0  0  0  0  0  0  0  0  0  0  0
    5.1776   -2.5134    0.0000 H   0  0  0  0  0  0  0  0  0  0  0  0
    5.9588   -2.1153    0.0000 H   0  0  0  0  0  0  0  0  0  0  0  0
    3.5313   -1.5940    0.0000 H   0  0  0  0  0  0  0  0  0  0  0  0
    7.1949    1.6889    0.0000 H   0  0  0  0  0  0  0  0  0  0  0  0
    6.7968    2.4701    0.0000 H   0  0  0  0  0  0  0  0  0  0  0  0
    6.0156    2.0721    0.0000 H   0  0  0  0  0  0  0  0  0  0  0  0
    2.5152    1.5425    0.0000 H   0  0  0  0  0  0  0  0  0  0  0  0
    8.1655    1.0104    0.0000 H   0  0  0  0  0  0  0  0  0  0  0  0
    7.1429   -2.1369    0.0000 H   0  0  0  0  0  0  0  0  0  0  0  0
    1.9056   -1.2601    0.0000 H   0  0  0  0  0  0  0  0  0  0  0  0
    1.3942    0.3187    0.0000 H   0  0  0  0  0  0  0  0  0  0  0  0
    9.2897   -0.2189    0.0000 H   0  0  0  0  0  0  0  0  0  0  0  0
  1  4  1  0  0  0  0
  1 10  1  0  0  0  0
  1 20  1  0  0  0  0
  2 16  2  0  0  0  0
  2 19  1  0  0  0  0
  3  4  2  0  0  0  0
  3  5  1  0  0  0  0
  3  6  1  0  0  0  0
  4  7  1  0  0  0  0
  5  9  2  0  0  0  0
  5 11  1  0  0  0  0
  6 10  1  0  0  0  0
  6 12  2  0  0  0  0
  7  8  2  0  0  0  0
  7 13  1  0  0  0  0
  8  9  1  0  0  0  0
  8 15  1  0  0  0  0
  9 16  1  0  0  0  0
 10 14  2  0  0  0  0
 11 21  1  0  0  0  0
 11 22  1  0  0  0  0
 11 23  1  0  0  0  0
 12 17  1  0  0  0  0
 12 24  1  0  0  0  0
 13 25  1  0  0  0  0
 13 26  1  0  0  0  0
 13 27  1  0  0  0  0
 14 18  1  0  0  0  0
 14 28  1  0  0  0  0
 15 19  2  0  0  0  0
 15 29  1  0  0  0  0
 16 30  1  0  0  0  0
 17 18  2  0  0  0  0
 17 31  1  0  0  0  0
 18 32  1  0  0  0  0
 19 33  1  0  0  0  0
M  END
> <PUBCHEM_COMPOUND_CID>
3213

> <PUBCHEM_COMPOUND_CANONICALIZED>
1

> <PUBCHEM_CACTVS_COMPLEXITY>
342

> <PUBCHEM_CACTVS_HBOND_ACCEPTOR>
1

> <PUBCHEM_CACTVS_HBOND_DONOR>
1

> <PUBCHEM_CACTVS_ROTATABLE_BOND>
0

> <PUBCHEM_CACTVS_SUBSKEYS>
AAADccB7AAAAAAAAAAAAAAAAAAAAAWAAAAA8YIAAAAAAAFix/gAAHAAQAAAADAjBHgQ+wPLJkACgAzRnRACCgCAxAiAI2SA4ZJgIIOLAkZGEIAhgkADIyAcQgMAOyAACQAASAACQAASAACQAAAAAAAAAAA==

> <PUBCHEM_IUPAC_OPENEYE_NAME>
5,11-dimethyl-6H-pyrido[4,3-b]carbazole

> <PUBCHEM_IUPAC_CAS_NAME>
5,11-dimethyl-6H-pyrido[4,3-b]carbazole

> <PUBCHEM_IUPAC_NAME>
5,11-dimethyl-6H-pyrido[4,3-b]carbazole

> <PUBCHEM_IUPAC_SYSTEMATIC_NAME>
5,11-dimethyl-6H-pyrido[4,3-b]carbazole

> <PUBCHEM_IUPAC_TRADITIONAL_NAME>
5,11-dimethyl-6H-pyrido[4,3-b]carbazole

> <PUBCHEM_IUPAC_INCHI>
InChI=1S/C17H14N2/c1-10-14-9-18-8-7-12(14)11(2)17-16(10)13-5-3-4-6-15(13)19-17/h3-9,19H,1-2H3

> <PUBCHEM_IUPAC_INCHIKEY>
CTSPAMFJBXKSOY-UHFFFAOYSA-N

> <PUBCHEM_XLOGP3>
4.8

> <PUBCHEM_EXACT_MASS>
246.116

> <PUBCHEM_MOLECULAR_FORMULA>
C17H14N2

> <PUBCHEM_MOLECULAR_WEIGHT>
246.313

> <PUBCHEM_OPENEYE_CAN_SMILES>
CC1=C2C(=C(C3=C1C=CN=C3)C)C4=CC=CC=C4N2

> <PUBCHEM_OPENEYE_ISO_SMILES>
CC1=C2C(=C(C3=C1C=CN=C3)C)C4=CC=CC=C4N2

> <PUBCHEM_CACTVS_TPSA>
28.7

> <PUBCHEM_MONOISOTOPIC_WEIGHT>
246.116

> <PUBCHEM_TOTAL_CHARGE>
0

> <PUBCHEM_HEAVY_ATOM_COUNT>
19

> <PUBCHEM_ATOM_DEF_STEREO_COUNT>
0

> <PUBCHEM_ATOM_UDEF_STEREO_COUNT>
0

> <PUBCHEM_BOND_DEF_STEREO_COUNT>
0

> <PUBCHEM_BOND_UDEF_STEREO_COUNT>
0

> <PUBCHEM_ISOTOPIC_ATOM_COUNT>
0

> <PUBCHEM_COMPONENT_COUNT>
1

> <PUBCHEM_CACTVS_TAUTO_COUNT>
2

> <PUBCHEM_COORDINATE_TYPE>
1
3

> <PUBCHEM_BONDANNOTATIONS>
1  10  8
1  4  8
10  14  8
12  17  8
14  18  8
15  19  8
17  18  8
2  16  8
2  19  8
3  4  8
3  5  8
3  6  8
4  7  8
5  9  8
6  10  8
6  12  8
7  8  8
8  15  8
8  9  8
9  16  8

$$$$
6419767
  -OEChem-11021604552D

 61 65  0     1  0  0  0  0  0999 V2000
   13.3385   -3.0547    0.0000 S   0  0  0  0  0  0  0  0  0  0  0  0
    2.0000   -1.7500    0.0000 F   0  0  0  0  0  0  0  0  0  0  0  0
   11.5263   -0.2500    0.0000 O   0  0  0  0  0  0  0  0  0  0  0  0
    8.0622   -1.2500    0.0000 N   0  0  0  0  0  0  0  0  0  0  0  0
   12.3923   -1.7500    0.0000 N   0  0  0  0  0  0  0  0  0  0  0  0
   11.5263   -3.2500    0.0000 N   0  0  0  0  0  0  0  0  0  0  0  0
   10.6603   -1.7500    0.0000 C   0  0  3  0  0  0  0  0  0  0  0  0
    8.9282   -1.7500    0.0000 C   0  0  0  0  0  0  0  0  0  0  0  0
    9.7942   -1.2500    0.0000 C   0  0  0  0  0  0  0  0  0  0  0  0
    7.1962   -1.7500    0.0000 C   0  0  0  0  0  0  0  0  0  0  0  0
    8.0622   -0.2500    0.0000 C   0  0  0  0  0  0  0  0  0  0  0  0
    6.3301   -1.2500    0.0000 C   0  0  0  0  0  0  0  0  0  0  0  0
    7.1962    0.2500    0.0000 C   0  0  0  0  0  0  0  0  0  0  0  0
   10.6603   -2.7500    0.0000 C   0  0  3  0  0  0  0  0  0  0  0  0
    6.3301   -0.2500    0.0000 C   0  0  0  0  0  0  0  0  0  0  0  0
   11.5263   -1.2500    0.0000 C   0  0  0  0  0  0  0  0  0  0  0  0
    5.4641    0.2500    0.0000 C   0  0  0  0  0  0  0  0  0  0  0  0
    9.7942   -3.2500    0.0000 C   0  0  0  0  0  0  0  0  0  0  0  0
   12.3923   -2.7500    0.0000 C   0  0  0  0  0  0  0  0  0  0  0  0
    4.5981   -0.2500    0.0000 C   0  0  0  0  0  0  0  0  0  0  0  0
    5.4641    1.2500    0.0000 C   0  0  0  0  0  0  0  0  0  0  0  0
   13.3385   -1.4453    0.0000 C   0  0  0  0  0  0  0  0  0  0  0  0
   13.9221   -2.2500    0.0000 C   0  0  0  0  0  0  0  0  0  0  0  0
    3.7320    0.2500    0.0000 C   0  0  0  0  0  0  0  0  0  0  0  0
    4.5981   -1.2500    0.0000 C   0  0  0  0  0  0  0  0  0  0  0  0
    6.3301    1.7500    0.0000 C   0  0  0  0  0  0  0  0  0  0  0  0
    4.5981    1.7500    0.0000 C   0  0  0  0  0  0  0  0  0  0  0  0
    2.8660   -0.2500    0.0000 C   0  0  0  0  0  0  0  0  0  0  0  0
    3.7320   -1.7500    0.0000 C   0  0  0  0  0  0  0  0  0  0  0  0
    6.3301    2.7500    0.0000 C   0  0  0  0  0  0  0  0  0  0  0  0
    4.5981    2.7500    0.0000 C   0  0  0  0  0  0  0  0  0  0  0  0
    2.8660   -1.2500    0.0000 C   0  0  0  0  0  0  0  0  0  0  0  0
    5.4641    3.2500    0.0000 C   0  0  0  0  0  0  0  0  0  0  0  0
   10.6603   -1.1300    0.0000 H   0  0  0  0  0  0  0  0  0  0  0  0
    8.5297   -2.2250    0.0000 H   0  0  0  0  0  0  0  0  0  0  0  0
    9.3267   -2.2250    0.0000 H   0  0  0  0  0  0  0  0  0  0  0  0
   10.1928   -0.7751    0.0000 H   0  0  0  0  0  0  0  0  0  0  0  0
    9.3957   -0.7751    0.0000 H   0  0  0  0  0  0  0  0  0  0  0  0
    8.6728   -0.3577    0.0000 H   0  0  0  0  0  0  0  0  0  0  0  0
    8.2742    0.3326    0.0000 H   0  0  0  0  0  0  0  0  0  0  0  0
    6.7976   -2.2250    0.0000 H   0  0  0  0  0  0  0  0  0  0  0  0
    7.5947   -2.2250    0.0000 H   0  0  0  0  0  0  0  0  0  0  0  0
    5.7196   -1.1423    0.0000 H   0  0  0  0  0  0  0  0  0  0  0  0
    7.5947    0.7249    0.0000 H   0  0  0  0  0  0  0  0  0  0  0  0
    6.7976    0.7249    0.0000 H   0  0  0  0  0  0  0  0  0  0  0  0
    6.1181   -1.8326    0.0000 H   0  0  0  0  0  0  0  0  0  0  0  0
   10.6603   -3.3700    0.0000 H   0  0  0  0  0  0  0  0  0  0  0  0
    9.4842   -2.7131    0.0000 H   0  0  0  0  0  0  0  0  0  0  0  0
    9.2573   -3.5600    0.0000 H   0  0  0  0  0  0  0  0  0  0  0  0
   10.1042   -3.7869    0.0000 H   0  0  0  0  0  0  0  0  0  0  0  0
   13.5311   -0.8559    0.0000 H   0  0  0  0  0  0  0  0  0  0  0  0
   14.5421   -2.2500    0.0000 H   0  0  0  0  0  0  0  0  0  0  0  0
    3.7320    0.8700    0.0000 H   0  0  0  0  0  0  0  0  0  0  0  0
    5.1350   -1.5600    0.0000 H   0  0  0  0  0  0  0  0  0  0  0  0
    6.8671    1.4400    0.0000 H   0  0  0  0  0  0  0  0  0  0  0  0
    4.0611    1.4400    0.0000 H   0  0  0  0  0  0  0  0  0  0  0  0
    2.3291    0.0600    0.0000 H   0  0  0  0  0  0  0  0  0  0  0  0
    3.7320   -2.3700    0.0000 H   0  0  0  0  0  0  0  0  0  0  0  0
    6.8671    3.0600    0.0000 H   0  0  0  0  0  0  0  0  0  0  0  0
    4.0611    3.0600    0.0000 H   0  0  0  0  0  0  0  0  0  0  0  0
    5.4641    3.8700    0.0000 H   0  0  0  0  0  0  0  0  0  0  0  0
  1 19  1  0  0  0  0
  1 23  1  0  0  0  0
  2 32  1  0  0  0  0
  3 16  2  0  0  0  0
  4  8  1  0  0  0  0
  4 10  1  0  0  0  0
  4 11  1  0  0  0  0
  5 16  1  0  0  0  0
  5 19  1  0  0  0  0
  5 22  1  0  0  0  0
  6 14  1  0  0  0  0
  6 19  2  0  0  0  0
  7  9  1  0  0  0  0
  7 14  1  0  0  0  0
  7 16  1  0  0  0  0
  7 34  1  0  0  0  0
  8  9  1  0  0  0  0
  8 35  1  0  0  0  0
  8 36  1  0  0  0  0
  9 37  1  0  0  0  0
  9 38  1  0  0  0  0
 10 12  1  0  0  0  0
 10 41  1  0  0  0  0
 10 42  1  0  0  0  0
 11 13  1  0  0  0  0
 11 39  1  0  0  0  0
 11 40  1  0  0  0  0
 12 15  1  0  0  0  0
 12 43  1  0  0  0  0
 12 46  1  0  0  0  0
 13 15  1  0  0  0  0
 13 44  1  0  0  0  0
 13 45  1  0  0  0  0
 14 18  1  0  0  0  0
 14 47  1  0  0  0  0
 15 17  2  0  0  0  0
 17 20  1  0  0  0  0
 17 21  1  0  0  0  0
 18 48  1  0  0  0  0
 18 49  1  0  0  0  0
 18 50  1  0  0  0  0
 20 24  2  0  0  0  0
 20 25  1  0  0  0  0
 21 26  2  0  0  0  0
 21 27  1  0  0  0  0
 22 23  2  0  0  0  0
 22 51  1  0  0  0  0
 23 52  1  0  0  0  0
 24 28  1  0  0  0  0
 24 53  1  0  0  0  0
 25 29  2  0  0  0  0
 25 54  1  0  0  0  0
 26 30  1  0  0  0  0
 26 55  1  0  0  0  0
 27 31  2  0  0  0  0
 27 56  1  0  0  0  0
 28 32  2  0  0  0  0
 28 57  1  0  0  0  0
 29 32  1  0  0  0  0
 29 58  1  0  0  0  0
 30 33  2  0  0  0  0
 30 59  1  0  0  0  0
 31 33  1  0  0  0  0
 31 60  1  0  0  0  0
 33 61  1  0  0  0  0
M  END
> <PUBCHEM_COMPOUND_CID>
6419767

> <PUBCHEM_COMPOUND_CANONICALIZED>
1

> <PUBCHEM_CACTVS_COMPLEXITY>
800

> <PUBCHEM_CACTVS_HBOND_ACCEPTOR>
5

> <PUBCHEM_CACTVS_HBOND_DONOR>
0

> <PUBCHEM_CACTVS_ROTATABLE_BOND>
5

> <PUBCHEM_CACTVS_SUBSKEYS>
AAADceB7IQBAAAAAAAAAAAAAAAAAAQAAAAA8YIEAAAAAAEABQAAAHwQAAAAADSjF2AyzAIMAAAioAiFWdAACEAFgAgAJiAEIAIgIIDqA2RCEIAAgggCIiAcUgMAOAAAAAAAAAAAAAAAAAAAAAAAAAAAAAA==

> <PUBCHEM_IUPAC_OPENEYE_NAME>
6-[2-[4-[(4-fluorophenyl)-phenyl-methylene]-1-piperidyl]ethyl]-7-methyl-6,7-dihydrothiazolo[3,2-a]pyrimidin-5-one

> <PUBCHEM_IUPAC_CAS_NAME>
6-[2-[4-[(4-fluorophenyl)-phenylmethylidene]-1-piperidinyl]ethyl]-7-methyl-6,7-dihydrothiazolo[3,2-a]pyrimidin-5-one

> <PUBCHEM_IUPAC_NAME>
6-[2-[4-[(4-fluorophenyl)-phenylmethylidene]piperidin-1-yl]ethyl]-7-methyl-6,7-dihydro-[1,3]thiazolo[3,2-a]pyrimidin-5-one

> <PUBCHEM_IUPAC_SYSTEMATIC_NAME>
6-[2-[4-[(4-fluorophenyl)-phenyl-methylidene]piperidin-1-yl]ethyl]-7-methyl-6,7-dihydro-[1,3]thiazolo[3,2-a]pyrimidin-5-one

> <PUBCHEM_IUPAC_TRADITIONAL_NAME>
6-[2-[4-[(4-fluorophenyl)-phenyl-methylene]piperidino]ethyl]-7-methyl-6,7-dihydrothiazolo[3,2-a]pyrimidin-5-one

> <PUBCHEM_IUPAC_INCHI>
InChI=1S/C27H28FN3OS/c1-19-24(26(32)31-17-18-33-27(31)29-19)13-16-30-14-11-22(12-15-30)25(20-5-3-2-4-6-20)21-7-9-23(28)10-8-21/h2-10,17-19,24H,11-16H2,1H3

> <PUBCHEM_IUPAC_INCHIKEY>
WLNJGNLHIOFODA-UHFFFAOYSA-N

> <PUBCHEM_XLOGP3_AA>
4.9

> <PUBCHEM_EXACT_MASS>
461.194

> <PUBCHEM_MOLECULAR_FORMULA>
C27H28FN3OS

> <PUBCHEM_MOLECULAR_WEIGHT>
461.599

> <PUBCHEM_OPENEYE_CAN_SMILES>
CC1C(C(=O)N2C=CSC2=N1)CCN3CCC(=C(C4=CC=CC=C4)C5=CC=C(C=C5)F)CC3

> <PUBCHEM_OPENEYE_ISO_SMILES>
CC1C(C(=O)N2C=CSC2=N1)CCN3CCC(=C(C4=CC=CC=C4)C5=CC=C(C=C5)F)CC3

> <PUBCHEM_CACTVS_TPSA>
61.2

> <PUBCHEM_MONOISOTOPIC_WEIGHT>
461.194

> <PUBCHEM_TOTAL_CHARGE>
0

> <PUBCHEM_HEAVY_ATOM_COUNT>
33

> <PUBCHEM_ATOM_DEF_STEREO_COUNT>
0

> <PUBCHEM_ATOM_UDEF_STEREO_COUNT>
2

> <PUBCHEM_BOND_DEF_STEREO_COUNT>
0

> <PUBCHEM_BOND_UDEF_STEREO_COUNT>
0

> <PUBCHEM_ISOTOPIC_ATOM_COUNT>
0

> <PUBCHEM_COMPONENT_COUNT>
1

> <PUBCHEM_CACTVS_TAUTO_COUNT>
2

> <PUBCHEM_COORDINATE_TYPE>
1
5
255

> <PUBCHEM_BONDANNOTATIONS>
14  18  3
20  24  8
20  25  8
21  26  8
21  27  8
24  28  8
25  29  8
26  30  8
27  31  8
28  32  8
29  32  8
30  33  8
31  33  8
7  9  3

$$$$
3037580
  -OEChem-11021604552D

 29 31  0     0  0  0  0  0  0999 V2000
    3.6418   -3.6115    0.0000 O   0  0  0  0  0  0  0  0  0  0  0  0
    5.3994    0.4743    0.0000 O   0  0  0  0  0  0  0  0  0  0  0  0
    2.4384   -2.4201    0.0000 N   0  0  0  0  0  0  0  0  0  0  0  0
    5.1408   -2.3104    0.0000 N   0  0  0  0  0  0  0  0  0  0  0  0
    2.9592    1.3350    0.0000 N   0  0  0  0  0  0  0  0  0  0  0  0
    4.4438    1.9784    0.0000 N   0  0  0  0  0  0  0  0  0  0  0  0
    3.0702    3.1136    0.0000 N   0  0  0  0  0  0  0  0  0  0  0  0
    3.4032   -0.3908    0.0000 C   0  0  0  0  0  0  0  0  0  0  0  0
    2.4294   -0.6181    0.0000 C   0  0  0  0  0  0  0  0  0  0  0  0
    4.1881   -1.0104    0.0000 C   0  0  0  0  0  0  0  0  0  0  0  0
    2.0000   -1.5213    0.0000 C   0  0  0  0  0  0  0  0  0  0  0  0
    4.1931   -2.0103    0.0000 C   0  0  0  0  0  0  0  0  0  0  0  0
    3.6208    0.5853    0.0000 C   0  0  0  0  0  0  0  0  0  0  0  0
    3.4144   -2.6377    0.0000 C   0  0  0  0  0  0  0  0  0  0  0  0
    5.1328   -0.7009    0.0000 C   0  0  0  0  0  0  0  0  0  0  0  0
    5.7204   -1.5027    0.0000 C   0  0  0  0  0  0  0  0  0  0  0  0
    4.5384    0.9829    0.0000 C   0  0  0  0  0  0  0  0  0  0  0  0
    3.4678    2.1960    0.0000 C   0  0  0  0  0  0  0  0  0  0  0  0
    2.4263    0.0018    0.0000 H   0  0  0  0  0  0  0  0  0  0  0  0
    1.8242   -0.4832    0.0000 H   0  0  0  0  0  0  0  0  0  0  0  0
    1.5133   -1.1371    0.0000 H   0  0  0  0  0  0  0  0  0  0  0  0
    1.5172   -1.9102    0.0000 H   0  0  0  0  0  0  0  0  0  0  0  0
    2.0542   -2.9067    0.0000 H   0  0  0  0  0  0  0  0  0  0  0  0
    5.3225   -0.1106    0.0000 H   0  0  0  0  0  0  0  0  0  0  0  0
    5.3364   -2.8987    0.0000 H   0  0  0  0  0  0  0  0  0  0  0  0
    6.3404   -1.4996    0.0000 H   0  0  0  0  0  0  0  0  0  0  0  0
    2.3419    1.2764    0.0000 H   0  0  0  0  0  0  0  0  0  0  0  0
    3.4396    3.6115    0.0000 H   0  0  0  0  0  0  0  0  0  0  0  0
    2.4542    3.1846    0.0000 H   0  0  0  0  0  0  0  0  0  0  0  0
  1 14  2  0  0  0  0
  2 17  2  0  0  0  0
  3 11  1  0  0  0  0
  3 14  1  0  0  0  0
  3 23  1  0  0  0  0
  4 12  1  0  0  0  0
  4 16  1  0  0  0  0
  4 25  1  0  0  0  0
  5 13  1  0  0  0  0
  5 18  1  0  0  0  0
  5 27  1  0  0  0  0
  6 17  1  0  0  0  0
  6 18  2  0  0  0  0
  7 18  1  0  0  0  0
  7 28  1  0  0  0  0
  7 29  1  0  0  0  0
  8  9  1  0  0  0  0
  8 10  1  0  0  0  0
  8 13  2  0  0  0  0
  9 11  1  0  0  0  0
  9 19  1  0  0  0  0
  9 20  1  0  0  0  0
 10 12  2  0  0  0  0
 10 15  1  0  0  0  0
 11 21  1  0  0  0  0
 11 22  1  0  0  0  0
 12 14  1  0  0  0  0
 13 17  1  0  0  0  0
 15 16  2  0  0  0  0
 15 24  1  0  0  0  0
 16 26  1  0  0  0  0
M  END
> <PUBCHEM_COMPOUND_CID>
3037580

> <PUBCHEM_COMPOUND_CANONICALIZED>
1

> <PUBCHEM_CACTVS_COMPLEXITY>
482

> <PUBCHEM_CACTVS_HBOND_ACCEPTOR>
2

> <PUBCHEM_CACTVS_HBOND_DONOR>
4

> <PUBCHEM_CACTVS_ROTATABLE_BOND>
0

> <PUBCHEM_CACTVS_SUBSKEYS>
AAADccBzsAAAAAAAAAAAAAAAAAAAAWIAAAAAAAAABYAAAACxgAAAHgAQAAAADAjBngQ9gJLJkACoAzV3dACCgCE3AiAJ2aG4ZNiIYPLAnLGUAQhglgLIyQcYCQAOAAAAAAAAAAAAAAAAAAAAAAAAAAAAAA==

> <PUBCHEM_IUPAC_OPENEYE_NAME>
(4E)-4-(2-amino-4-oxo-1H-imidazol-5-ylidene)-1,5,6,7-tetrahydropyrrolo[2,3-c]azepin-8-one

> <PUBCHEM_IUPAC_CAS_NAME>
(4E)-4-(2-amino-4-oxo-1H-imidazol-5-ylidene)-1,5,6,7-tetrahydropyrrolo[2,3-c]azepin-8-one

> <PUBCHEM_IUPAC_NAME>
(4E)-4-(2-amino-4-oxo-1H-imidazol-5-ylidene)-1,5,6,7-tetrahydropyrrolo[2,3-c]azepin-8-one

> <PUBCHEM_IUPAC_SYSTEMATIC_NAME>
(4E)-4-(2-azanyl-4-oxidanylidene-1H-imidazol-5-ylidene)-1,5,6,7-tetrahydropyrrolo[2,3-c]azepin-8-one

> <PUBCHEM_IUPAC_TRADITIONAL_NAME>
(4E)-4-(2-amino-5-keto-2-imidazolin-4-ylidene)-1,5,6,7-tetrahydropyrrol[2,3-c]azepin-8-one

> <PUBCHEM_IUPAC_INCHI>
InChI=1S/C11H11N5O2/c12-11-15-8(10(18)16-11)6-2-4-14-9(17)7-5(6)1-3-13-7/h1,3,13H,2,4H2,(H,14,17)(H3,12,15,16,18)/b8-6+

> <PUBCHEM_IUPAC_INCHIKEY>
JYRJOQGKGMHTOO-SOFGYWHQSA-N

> <PUBCHEM_XLOGP3_AA>
-1.2

> <PUBCHEM_EXACT_MASS>
245.091

> <PUBCHEM_MOLECULAR_FORMULA>
C11H11N5O2

> <PUBCHEM_MOLECULAR_WEIGHT>
245.242

> <PUBCHEM_OPENEYE_CAN_SMILES>
C1CNC(=O)C2=C(C1=C3C(=O)N=C(N3)N)C=CN2

> <PUBCHEM_OPENEYE_ISO_SMILES>
C\1CNC(=O)C2=C(/C1=C/3\C(=O)N=C(N3)N)C=CN2

> <PUBCHEM_CACTVS_TPSA>
112

> <PUBCHEM_MONOISOTOPIC_WEIGHT>
245.091

> <PUBCHEM_TOTAL_CHARGE>
0

> <PUBCHEM_HEAVY_ATOM_COUNT>
18

> <PUBCHEM_ATOM_DEF_STEREO_COUNT>
0

> <PUBCHEM_ATOM_UDEF_STEREO_COUNT>
0

> <PUBCHEM_BOND_DEF_STEREO_COUNT>
1

> <PUBCHEM_BOND_UDEF_STEREO_COUNT>
0

> <PUBCHEM_ISOTOPIC_ATOM_COUNT>
0

> <PUBCHEM_COMPONENT_COUNT>
1

> <PUBCHEM_CACTVS_TAUTO_COUNT>
151

> <PUBCHEM_COORDINATE_TYPE>
1
5
255

> <PUBCHEM_BONDANNOTATIONS>
10  12  8
10  15  8
15  16  8
4  12  8
4  16  8

$$$$
5330812
  -OEChem-11021604552D

 41 43  0     0  0  0  0  0  0999 V2000
    5.8076    4.4278    0.0000 S   0  0  0  0  0  0  0  0  0  0  0  0
    2.4577   -2.2927    0.0000 S   0  0  0  0  0  0  0  0  0  0  0  0
    2.0510   -3.2062    0.0000 F   0  0  0  0  0  0  0  0  0  0  0  0
    5.2156   -4.6152    0.0000 F   0  0  0  0  0  0  0  0  0  0  0  0
    6.8076    4.4278    0.0000 O   0  0  0  0  0  0  0  0  0  0  0  0
    4.8076    4.4278    0.0000 O   0  0  0  0  0  0  0  0  0  0  0  0
    5.8076    0.4278    0.0000 N   0  0  0  0  0  0  0  0  0  0  0  0
    3.8590   -1.2746    0.0000 N   0  0  0  0  0  0  0  0  0  0  0  0
    4.8371   -1.0667    0.0000 N   0  0  0  0  0  0  0  0  0  0  0  0
    4.0400   -2.9972    0.0000 N   0  0  0  0  0  0  0  0  0  0  0  0
    4.0281    0.3346    0.0000 N   0  0  0  0  0  0  0  0  0  0  0  0
    5.8076    5.4278    0.0000 N   0  0  0  0  0  0  0  0  0  0  0  0
    2.3644   -0.3041    0.0000 N   0  0  0  0  0  0  0  0  0  0  0  0
    5.8076    1.4278    0.0000 C   0  0  0  0  0  0  0  0  0  0  0  0
    5.8076    3.4278    0.0000 C   0  0  0  0  0  0  0  0  0  0  0  0
    6.6737    1.9278    0.0000 C   0  0  0  0  0  0  0  0  0  0  0  0
    4.9416    1.9278    0.0000 C   0  0  0  0  0  0  0  0  0  0  0  0
    6.6737    2.9278    0.0000 C   0  0  0  0  0  0  0  0  0  0  0  0
    4.9416    2.9278    0.0000 C   0  0  0  0  0  0  0  0  0  0  0  0
    4.9416   -0.0722    0.0000 C   0  0  0  0  0  0  0  0  0  0  0  0
    3.3590   -0.4086    0.0000 C   0  0  0  0  0  0  0  0  0  0  0  0
    3.4522   -2.1882    0.0000 C   0  0  0  0  0  0  0  0  0  0  0  0
    3.6333   -3.9107    0.0000 C   0  0  0  0  0  0  0  0  0  0  0  0
    2.6387   -4.0152    0.0000 C   0  0  0  0  0  0  0  0  0  0  0  0
    4.2210   -4.7197    0.0000 C   0  0  0  0  0  0  0  0  0  0  0  0
    2.2320   -4.9288    0.0000 C   0  0  0  0  0  0  0  0  0  0  0  0
    3.8143   -5.6333    0.0000 C   0  0  0  0  0  0  0  0  0  0  0  0
    2.8198   -5.7378    0.0000 C   0  0  0  0  0  0  0  0  0  0  0  0
    7.2106    1.6178    0.0000 H   0  0  0  0  0  0  0  0  0  0  0  0
    4.4047    1.6178    0.0000 H   0  0  0  0  0  0  0  0  0  0  0  0
    7.2106    3.2378    0.0000 H   0  0  0  0  0  0  0  0  0  0  0  0
    4.4047    3.2378    0.0000 H   0  0  0  0  0  0  0  0  0  0  0  0
    6.3446    0.1178    0.0000 H   0  0  0  0  0  0  0  0  0  0  0  0
    4.6566   -2.9324    0.0000 H   0  0  0  0  0  0  0  0  0  0  0  0
    6.3446    5.7378    0.0000 H   0  0  0  0  0  0  0  0  0  0  0  0
    5.2707    5.7378    0.0000 H   0  0  0  0  0  0  0  0  0  0  0  0
    1.6154   -4.9936    0.0000 H   0  0  0  0  0  0  0  0  0  0  0  0
    4.1787   -6.1349    0.0000 H   0  0  0  0  0  0  0  0  0  0  0  0
    2.5676   -6.3042    0.0000 H   0  0  0  0  0  0  0  0  0  0  0  0
    2.1122    0.2623    0.0000 H   0  0  0  0  0  0  0  0  0  0  0  0
    2.0000   -0.8057    0.0000 H   0  0  0  0  0  0  0  0  0  0  0  0
  1  5  2  0  0  0  0
  1  6  2  0  0  0  0
  1 12  1  0  0  0  0
  1 15  1  0  0  0  0
  2 22  2  0  0  0  0
  3 24  1  0  0  0  0
  4 25  1  0  0  0  0
  7 14  1  0  0  0  0
  7 20  1  0  0  0  0
  7 33  1  0  0  0  0
  8  9  1  0  0  0  0
  8 21  1  0  0  0  0
  8 22  1  0  0  0  0
  9 20  2  0  0  0  0
 10 22  1  0  0  0  0
 10 23  1  0  0  0  0
 10 34  1  0  0  0  0
 11 20  1  0  0  0  0
 11 21  2  0  0  0  0
 12 35  1  0  0  0  0
 12 36  1  0  0  0  0
 13 21  1  0  0  0  0
 13 40  1  0  0  0  0
 13 41  1  0  0  0  0
 14 16  2  0  0  0  0
 14 17  1  0  0  0  0
 15 18  2  0  0  0  0
 15 19  1  0  0  0  0
 16 18  1  0  0  0  0
 16 29  1  0  0  0  0
 17 19  2  0  0  0  0
 17 30  1  0  0  0  0
 18 31  1  0  0  0  0
 19 32  1  0  0  0  0
 23 24  2  0  0  0  0
 23 25  1  0  0  0  0
 24 26  1  0  0  0  0
 25 27  2  0  0  0  0
 26 28  2  0  0  0  0
 26 37  1  0  0  0  0
 27 28  1  0  0  0  0
 27 38  1  0  0  0  0
 28 39  1  0  0  0  0
M  END
> <PUBCHEM_COMPOUND_CID>
5330812

> <PUBCHEM_COMPOUND_CANONICALIZED>
1

> <PUBCHEM_CACTVS_COMPLEXITY>
647

> <PUBCHEM_CACTVS_HBOND_ACCEPTOR>
10

> <PUBCHEM_CACTVS_HBOND_DONOR>
4

> <PUBCHEM_CACTVS_ROTATABLE_BOND>
4

> <PUBCHEM_CACTVS_SUBSKEYS>
AAADccBzsYBgAAAAAAAAAAAAAAAAAWAAAAAwYAAAAAAAAAAB0AAAHQQYQAAACAiBUAgx0YbIEAKmACRCZHDSABshAokNiBgAZIiIKCLAmZGEIAh4kAJIyCcQAAAAAAQAAAAAAAAACAAAAAAAAAAAAAAAAA==

> <PUBCHEM_IUPAC_OPENEYE_NAME>
5-amino-N-(2,6-difluorophenyl)-3-(4-sulfamoylanilino)-1,2,4-triazole-1-carbothioamide

> <PUBCHEM_IUPAC_CAS_NAME>
5-amino-N-(2,6-difluorophenyl)-3-(4-sulfamoylanilino)-1,2,4-triazole-1-carbothioamide

> <PUBCHEM_IUPAC_NAME>
5-amino-N-(2,6-difluorophenyl)-3-(4-sulfamoylanilino)-1,2,4-triazole-1-carbothioamide

> <PUBCHEM_IUPAC_SYSTEMATIC_NAME>
5-azanyl-N-[2,6-bis(fluoranyl)phenyl]-3-[(4-sulfamoylphenyl)amino]-1,2,4-triazole-1-carbothioamide

> <PUBCHEM_IUPAC_TRADITIONAL_NAME>
5-amino-N-(2,6-difluorophenyl)-3-(4-sulfamoylanilino)-1,2,4-triazole-1-carbothioamide

> <PUBCHEM_IUPAC_INCHI>
InChI=1S/C15H13F2N7O2S2/c16-10-2-1-3-11(17)12(10)21-15(27)24-13(18)22-14(23-24)20-8-4-6-9(7-5-8)28(19,25)26/h1-7H,(H,21,27)(H2,19,25,26)(H3,18,20,22,23)

> <PUBCHEM_IUPAC_INCHIKEY>
ARIOBGGRZJITQX-UHFFFAOYSA-N

> <PUBCHEM_XLOGP3_AA>
2.2

> <PUBCHEM_EXACT_MASS>
425.054

> <PUBCHEM_MOLECULAR_FORMULA>
C15H13F2N7O2S2

> <PUBCHEM_MOLECULAR_WEIGHT>
425.433

> <PUBCHEM_OPENEYE_CAN_SMILES>
C1=CC(=C(C(=C1)F)NC(=S)N2C(=NC(=N2)NC3=CC=C(C=C3)S(=O)(=O)N)N)F

> <PUBCHEM_OPENEYE_ISO_SMILES>
C1=CC(=C(C(=C1)F)NC(=S)N2C(=NC(=N2)NC3=CC=C(C=C3)S(=O)(=O)N)N)F

> <PUBCHEM_CACTVS_TPSA>
181

> <PUBCHEM_MONOISOTOPIC_WEIGHT>
425.054

> <PUBCHEM_TOTAL_CHARGE>
0

> <PUBCHEM_HEAVY_ATOM_COUNT>
28

> <PUBCHEM_ATOM_DEF_STEREO_COUNT>
0

> <PUBCHEM_ATOM_UDEF_STEREO_COUNT>
0

> <PUBCHEM_BOND_DEF_STEREO_COUNT>
0

> <PUBCHEM_BOND_UDEF_STEREO_COUNT>
0

> <PUBCHEM_ISOTOPIC_ATOM_COUNT>
0

> <PUBCHEM_COMPONENT_COUNT>
1

> <PUBCHEM_CACTVS_TAUTO_COUNT>
10

> <PUBCHEM_COORDINATE_TYPE>
1
5
255

> <PUBCHEM_BONDANNOTATIONS>
11  20  8
11  21  8
14  16  8
14  17  8
15  18  8
15  19  8
16  18  8
17  19  8
23  24  8
23  25  8
24  26  8
25  27  8
26  28  8
27  28  8
8  21  8
8  9  8
9  20  8

$$$$
650394
  -OEChem-11021604552D

 27 29  0     0  0  0  0  0  0999 V2000
    2.0000   -0.1634    0.0000 Br  0  0  0  0  0  0  0  0  0  0  0  0
    5.5047    0.7491    0.0000 S   0  0  0  0  0  0  0  0  0  0  0  0
    3.3823    1.3481    0.0000 O   0  0  0  0  0  0  0  0  0  0  0  0
    6.3697   -2.5219    0.0000 O   0  0  0  0  0  0  0  0  0  0  0  0
    7.7102   -1.3658    0.0000 N   0  0  0  0  0  0  0  0  0  0  0  0
    7.3291    0.3936    0.0000 N   0  0  0  0  0  0  0  0  0  0  0  0
    5.0047   -0.7897    0.0000 C   0  0  0  0  0  0  0  0  0  0  0  0
    4.6957    0.1613    0.0000 C   0  0  0  0  0  0  0  0  0  0  0  0
    6.0047   -0.7897    0.0000 C   0  0  0  0  0  0  0  0  0  0  0  0
    6.3137    0.1613    0.0000 C   0  0  0  0  0  0  0  0  0  0  0  0
    3.6803    0.3936    0.0000 C   0  0  0  0  0  0  0  0  0  0  0  0
    4.3197   -1.5745    0.0000 C   0  0  0  0  0  0  0  0  0  0  0  0
    6.6897   -1.5745    0.0000 C   0  0  0  0  0  0  0  0  0  0  0  0
    2.9773   -0.3751    0.0000 C   0  0  0  0  0  0  0  0  0  0  0  0
    3.2992   -1.3658    0.0000 C   0  0  0  0  0  0  0  0  0  0  0  0
    2.4066    1.5673    0.0000 C   0  0  0  0  0  0  0  0  0  0  0  0
    8.0321   -0.3751    0.0000 C   0  0  0  0  0  0  0  0  0  0  0  0
    2.1086    2.5219    0.0000 C   0  0  0  0  0  0  0  0  0  0  0  0
    4.5181   -2.1619    0.0000 H   0  0  0  0  0  0  0  0  0  0  0  0
    2.8861   -1.8281    0.0000 H   0  0  0  0  0  0  0  0  0  0  0  0
    8.1233   -1.8281    0.0000 H   0  0  0  0  0  0  0  0  0  0  0  0
    1.7917    1.4882    0.0000 H   0  0  0  0  0  0  0  0  0  0  0  0
    2.3778    0.9480    0.0000 H   0  0  0  0  0  0  0  0  0  0  0  0
    8.6380   -0.2439    0.0000 H   0  0  0  0  0  0  0  0  0  0  0  0
    2.7004    2.7067    0.0000 H   0  0  0  0  0  0  0  0  0  0  0  0
    1.9238    3.1137    0.0000 H   0  0  0  0  0  0  0  0  0  0  0  0
    1.5168    2.3371    0.0000 H   0  0  0  0  0  0  0  0  0  0  0  0
  1 14  1  0  0  0  0
  2  8  1  0  0  0  0
  2 10  1  0  0  0  0
  3 11  1  0  0  0  0
  3 16  1  0  0  0  0
  4 13  2  0  0  0  0
  5 13  1  0  0  0  0
  5 17  1  0  0  0  0
  5 21  1  0  0  0  0
  6 10  1  0  0  0  0
  6 17  2  0  0  0  0
  7  8  2  0  0  0  0
  7  9  1  0  0  0  0
  7 12  1  0  0  0  0
  8 11  1  0  0  0  0
  9 10  2  0  0  0  0
  9 13  1  0  0  0  0
 11 14  2  0  0  0  0
 12 15  2  0  0  0  0
 12 19  1  0  0  0  0
 14 15  1  0  0  0  0
 15 20  1  0  0  0  0
 16 18  1  0  0  0  0
 16 22  1  0  0  0  0
 16 23  1  0  0  0  0
 17 24  1  0  0  0  0
 18 25  1  0  0  0  0
 18 26  1  0  0  0  0
 18 27  1  0  0  0  0
M  END
> <PUBCHEM_COMPOUND_CID>
650394

> <PUBCHEM_COMPOUND_CANONICALIZED>
1

> <PUBCHEM_CACTVS_COMPLEXITY>
379

> <PUBCHEM_CACTVS_HBOND_ACCEPTOR>
4

> <PUBCHEM_CACTVS_HBOND_DONOR>
1

> <PUBCHEM_CACTVS_ROTATABLE_BOND>
2

> <PUBCHEM_CACTVS_SUBSKEYS>
AAADccBzMABAEAAAAAAAAAAAAAAAASAAAAAwQAAAAAAAAEgB8AAAHgRQAAABrASh2AYzh8LABAisAiFTdACDCIFkKBQJiJMMTOgMJjqk/JuGOajkwhEo61eY3PLOggABAAgEJAAEAAIAEAhIAAAAAAAAAA==

> <PUBCHEM_IUPAC_OPENEYE_NAME>
7-bromo-8-ethoxy-3H-benzothiopheno[2,3-d]pyrimidin-4-one

> <PUBCHEM_IUPAC_CAS_NAME>
7-bromo-8-ethoxy-3H-[1]benzothiolo[2,3-d]pyrimidin-4-one

> <PUBCHEM_IUPAC_NAME>
7-bromo-8-ethoxy-3H-[1]benzothiolo[2,3-d]pyrimidin-4-one

> <PUBCHEM_IUPAC_SYSTEMATIC_NAME>
7-bromanyl-8-ethoxy-3H-[1]benzothiolo[2,3-d]pyrimidin-4-one

> <PUBCHEM_IUPAC_TRADITIONAL_NAME>
7-bromo-8-ethoxy-3H-benzothiopheno[2,3-d]pyrimidin-4-one

> <PUBCHEM_IUPAC_INCHI>
InChI=1S/C12H9BrN2O2S/c1-2-17-9-7(13)4-3-6-8-11(16)14-5-15-12(8)18-10(6)9/h3-5H,2H2,1H3,(H,14,15,16)

> <PUBCHEM_IUPAC_INCHIKEY>
ODDDHRGSBSSZJW-UHFFFAOYSA-N

> <PUBCHEM_XLOGP3_AA>
3.1

> <PUBCHEM_EXACT_MASS>
323.957

> <PUBCHEM_MOLECULAR_FORMULA>
C12H9BrN2O2S

> <PUBCHEM_MOLECULAR_WEIGHT>
325.18

> <PUBCHEM_OPENEYE_CAN_SMILES>
CCOC1=C(C=CC2=C1SC3=C2C(=O)NC=N3)Br

> <PUBCHEM_OPENEYE_ISO_SMILES>
CCOC1=C(C=CC2=C1SC3=C2C(=O)NC=N3)Br

> <PUBCHEM_CACTVS_TPSA>
78.9

> <PUBCHEM_MONOISOTOPIC_WEIGHT>
323.957

> <PUBCHEM_TOTAL_CHARGE>
0

> <PUBCHEM_HEAVY_ATOM_COUNT>
18

> <PUBCHEM_ATOM_DEF_STEREO_COUNT>
0

> <PUBCHEM_ATOM_UDEF_STEREO_COUNT>
0

> <PUBCHEM_BOND_DEF_STEREO_COUNT>
0

> <PUBCHEM_BOND_UDEF_STEREO_COUNT>
0

> <PUBCHEM_ISOTOPIC_ATOM_COUNT>
0

> <PUBCHEM_COMPONENT_COUNT>
1

> <PUBCHEM_CACTVS_TAUTO_COUNT>
4

> <PUBCHEM_COORDINATE_TYPE>
1
5
255

> <PUBCHEM_BONDANNOTATIONS>
11  14  8
12  15  8
14  15  8
2  10  8
2  8  8
5  13  8
5  17  8
6  10  8
6  17  8
7  12  8
7  8  8
7  9  8
8  11  8
9  10  8
9  13  8

$$$$
5547426
  -OEChem-11021604552D

 27 29  0     0  0  0  0  0  0999 V2000
    5.5504    2.8595    0.0000 S   0  0  0  0  0  0  0  0  0  0  0  0
    7.1279   -1.4654    0.0000 O   0  0  0  0  0  0  0  0  0  0  0  0
    7.6146    0.0080    0.0000 O   0  0  0  0  0  0  0  0  0  0  0  0
    5.5443   -2.2701    0.0000 N   0  0  0  0  0  0  0  0  0  0  0  0
    5.2686    1.0999    0.0000 N   0  0  0  0  0  0  0  0  0  0  0  0
    6.8083    1.5972    0.0000 N   0  0  0  0  0  0  0  0  0  0  0  0
    4.5981   -0.9654    0.0000 C   0  0  0  0  0  0  0  0  0  0  0  0
    5.5443   -0.6607    0.0000 C   0  0  0  0  0  0  0  0  0  0  0  0
    4.5981   -1.9654    0.0000 C   0  0  0  0  0  0  0  0  0  0  0  0
    5.8550    0.2898    0.0000 C   0  0  0  0  0  0  0  0  0  0  0  0
    6.1279   -1.4654    0.0000 C   0  0  0  0  0  0  0  0  0  0  0  0
    3.7320   -0.4654    0.0000 C   0  0  0  0  0  0  0  0  0  0  0  0
    2.8660   -0.9654    0.0000 C   0  0  0  0  0  0  0  0  0  0  0  0
    3.7320   -2.4654    0.0000 C   0  0  0  0  0  0  0  0  0  0  0  0
    6.8066    0.5972    0.0000 C   0  0  0  0  0  0  0  0  0  0  0  0
    2.8660   -1.9654    0.0000 C   0  0  0  0  0  0  0  0  0  0  0  0
    5.8578    1.9079    0.0000 C   0  0  0  0  0  0  0  0  0  0  0  0
    2.0000   -0.4654    0.0000 C   0  0  0  0  0  0  0  0  0  0  0  0
    5.7369   -2.8595    0.0000 H   0  0  0  0  0  0  0  0  0  0  0  0
    3.7320    0.1546    0.0000 H   0  0  0  0  0  0  0  0  0  0  0  0
    3.7320   -3.0854    0.0000 H   0  0  0  0  0  0  0  0  0  0  0  0
    4.6486    1.1010    0.0000 H   0  0  0  0  0  0  0  0  0  0  0  0
    2.3291   -2.2754    0.0000 H   0  0  0  0  0  0  0  0  0  0  0  0
    7.3105    1.9608    0.0000 H   0  0  0  0  0  0  0  0  0  0  0  0
    2.3100    0.0715    0.0000 H   0  0  0  0  0  0  0  0  0  0  0  0
    1.4631   -0.1554    0.0000 H   0  0  0  0  0  0  0  0  0  0  0  0
    1.6900   -1.0024    0.0000 H   0  0  0  0  0  0  0  0  0  0  0  0
  1 17  2  0  0  0  0
  2 11  2  0  0  0  0
  3 15  2  0  0  0  0
  4  9  1  0  0  0  0
  4 11  1  0  0  0  0
  4 19  1  0  0  0  0
  5 10  1  0  0  0  0
  5 17  1  0  0  0  0
  5 22  1  0  0  0  0
  6 15  1  0  0  0  0
  6 17  1  0  0  0  0
  6 24  1  0  0  0  0
  7  8  1  0  0  0  0
  7  9  2  0  0  0  0
  7 12  1  0  0  0  0
  8 10  2  0  0  0  0
  8 11  1  0  0  0  0
  9 14  1  0  0  0  0
 10 15  1  0  0  0  0
 12 13  2  0  0  0  0
 12 20  1  0  0  0  0
 13 16  1  0  0  0  0
 13 18  1  0  0  0  0
 14 16  2  0  0  0  0
 14 21  1  0  0  0  0
 16 23  1  0  0  0  0
 18 25  1  0  0  0  0
 18 26  1  0  0  0  0
 18 27  1  0  0  0  0
M  END
> <PUBCHEM_COMPOUND_CID>
5547426

> <PUBCHEM_COMPOUND_CANONICALIZED>
1

> <PUBCHEM_CACTVS_COMPLEXITY>
486

> <PUBCHEM_CACTVS_HBOND_ACCEPTOR>
3

> <PUBCHEM_CACTVS_HBOND_DONOR>
3

> <PUBCHEM_CACTVS_ROTATABLE_BOND>
0

> <PUBCHEM_CACTVS_SUBSKEYS>
AAADccBzMABAAAAAAAAAAAAAAAAAAWLAAAAwAAAAAAAAAFgBAAAAHgQQAAAADAiBmAAzwILAAACMAiVSUACCAAAhAgkIiAGAZMiIYDLAlbGUIAholQLIyUcciMCOCAACAAACAAAQAAQAAAQAAAAAAAAAAA==

> <PUBCHEM_IUPAC_OPENEYE_NAME>
(3E)-5-methyl-3-(5-oxo-2-thioxo-imidazolidin-4-ylidene)indolin-2-one

> <PUBCHEM_IUPAC_CAS_NAME>
(3E)-5-methyl-3-(5-oxo-2-sulfanylidene-4-imidazolidinylidene)-1H-indol-2-one

> <PUBCHEM_IUPAC_NAME>
(3E)-5-methyl-3-(5-oxo-2-sulfanylideneimidazolidin-4-ylidene)-1H-indol-2-one

> <PUBCHEM_IUPAC_SYSTEMATIC_NAME>
(3E)-5-methyl-3-(5-oxidanylidene-2-sulfanylidene-imidazolidin-4-ylidene)-1H-indol-2-one

> <PUBCHEM_IUPAC_TRADITIONAL_NAME>
(3E)-3-(5-keto-2-thioxo-imidazolidin-4-ylidene)-5-methyl-oxindole

> <PUBCHEM_IUPAC_INCHI>
InChI=1S/C12H9N3O2S/c1-5-2-3-7-6(4-5)8(10(16)13-7)9-11(17)15-12(18)14-9/h2-4H,1H3,(H,13,16)(H2,14,15,17,18)/b9-8+

> <PUBCHEM_IUPAC_INCHIKEY>
LAMQCFGZZNMIOI-CMDGGOBGSA-N

> <PUBCHEM_XLOGP3_AA>
0.7

> <PUBCHEM_EXACT_MASS>
259.042

> <PUBCHEM_MOLECULAR_FORMULA>
C12H9N3O2S

> <PUBCHEM_MOLECULAR_WEIGHT>
259.283

> <PUBCHEM_OPENEYE_CAN_SMILES>
CC1=CC2=C(C=C1)NC(=O)C2=C3C(=O)NC(=S)N3

> <PUBCHEM_OPENEYE_ISO_SMILES>
CC1=CC\2=C(C=C1)NC(=O)/C2=C/3\C(=O)NC(=S)N3

> <PUBCHEM_CACTVS_TPSA>
102

> <PUBCHEM_MONOISOTOPIC_WEIGHT>
259.042

> <PUBCHEM_TOTAL_CHARGE>
0

> <PUBCHEM_HEAVY_ATOM_COUNT>
18

> <PUBCHEM_ATOM_DEF_STEREO_COUNT>
0

> <PUBCHEM_ATOM_UDEF_STEREO_COUNT>
0

> <PUBCHEM_BOND_DEF_STEREO_COUNT>
1

> <PUBCHEM_BOND_UDEF_STEREO_COUNT>
0

> <PUBCHEM_ISOTOPIC_ATOM_COUNT>
0

> <PUBCHEM_COMPONENT_COUNT>
1

> <PUBCHEM_CACTVS_TAUTO_COUNT>
74

> <PUBCHEM_COORDINATE_TYPE>
1
5
255

> <PUBCHEM_BONDANNOTATIONS>
12  13  8
13  16  8
14  16  8
7  12  8
7  9  8
9  14  8

$$$$
5472313
  -OEChem-11021604552D

 32 35  0     0  0  0  0  0  0999 V2000
    7.1774    2.5924    0.0000 I   0  0  0  0  0  0  0  0  0  0  0  0
    6.5348   -2.5924    0.0000 O   0  0  0  0  0  0  0  0  0  0  0  0
    4.3211    1.6624    0.0000 O   0  0  0  0  0  0  0  0  0  0  0  0
    4.6783   -1.6419    0.0000 N   0  0  0  0  0  0  0  0  0  0  0  0
    4.9889    0.9181    0.0000 N   0  0  0  0  0  0  0  0  0  0  0  0
    7.7917   -1.3372    0.0000 N   0  0  0  0  0  0  0  0  0  0  0  0
    5.2619   -0.8372    0.0000 C   0  0  0  0  0  0  0  0  0  0  0  0
    6.2619   -0.8372    0.0000 C   0  0  0  0  0  0  0  0  0  0  0  0
    4.6783   -0.0324    0.0000 C   0  0  0  0  0  0  0  0  0  0  0  0
    3.7320   -0.3372    0.0000 C   0  0  0  0  0  0  0  0  0  0  0  0
    3.7320   -1.3372    0.0000 C   0  0  0  0  0  0  0  0  0  0  0  0
    6.8455   -0.0324    0.0000 C   0  0  0  0  0  0  0  0  0  0  0  0
    7.7960   -0.3431    0.0000 C   0  0  0  0  0  0  0  0  0  0  0  0
    6.8455   -1.6419    0.0000 C   0  0  0  0  0  0  0  0  0  0  0  0
    2.8660    0.1628    0.0000 C   0  0  0  0  0  0  0  0  0  0  0  0
    2.8660   -1.8372    0.0000 C   0  0  0  0  0  0  0  0  0  0  0  0
    6.6393    0.9461    0.0000 C   0  0  0  0  0  0  0  0  0  0  0  0
    2.0000   -0.3372    0.0000 C   0  0  0  0  0  0  0  0  0  0  0  0
    2.0000   -1.3372    0.0000 C   0  0  0  0  0  0  0  0  0  0  0  0
    8.5403    0.3247    0.0000 C   0  0  0  0  0  0  0  0  0  0  0  0
    7.3836    1.6139    0.0000 C   0  0  0  0  0  0  0  0  0  0  0  0
    8.3341    1.3032    0.0000 C   0  0  0  0  0  0  0  0  0  0  0  0
    4.8709   -2.2312    0.0000 H   0  0  0  0  0  0  0  0  0  0  0  0
    2.8660    0.7828    0.0000 H   0  0  0  0  0  0  0  0  0  0  0  0
    2.8660   -2.4572    0.0000 H   0  0  0  0  0  0  0  0  0  0  0  0
    6.0500    1.1387    0.0000 H   0  0  0  0  0  0  0  0  0  0  0  0
    5.5956    1.0459    0.0000 H   0  0  0  0  0  0  0  0  0  0  0  0
    1.4631   -0.0272    0.0000 H   0  0  0  0  0  0  0  0  0  0  0  0
    1.4631   -1.6472    0.0000 H   0  0  0  0  0  0  0  0  0  0  0  0
    9.1296    0.1321    0.0000 H   0  0  0  0  0  0  0  0  0  0  0  0
    8.7956    1.7173    0.0000 H   0  0  0  0  0  0  0  0  0  0  0  0
    4.5137    2.2517    0.0000 H   0  0  0  0  0  0  0  0  0  0  0  0
  1 21  1  0  0  0  0
  2 14  2  0  0  0  0
  3  5  1  0  0  0  0
  3 32  1  0  0  0  0
  4  7  1  0  0  0  0
  4 11  1  0  0  0  0
  4 23  1  0  0  0  0
  5  9  1  0  0  0  0
  5 27  1  0  0  0  0
  6 13  2  0  0  0  0
  6 14  1  0  0  0  0
  7  8  1  0  0  0  0
  7  9  2  0  0  0  0
  8 12  2  0  0  0  0
  8 14  1  0  0  0  0
  9 10  1  0  0  0  0
 10 11  1  0  0  0  0
 10 15  2  0  0  0  0
 11 16  2  0  0  0  0
 12 13  1  0  0  0  0
 12 17  1  0  0  0  0
 13 20  1  0  0  0  0
 15 18  1  0  0  0  0
 15 24  1  0  0  0  0
 16 19  1  0  0  0  0
 16 25  1  0  0  0  0
 17 21  2  0  0  0  0
 17 26  1  0  0  0  0
 18 19  2  0  0  0  0
 18 28  1  0  0  0  0
 19 29  1  0  0  0  0
 20 22  2  0  0  0  0
 20 30  1  0  0  0  0
 21 22  1  0  0  0  0
 22 31  1  0  0  0  0
M  END
> <PUBCHEM_COMPOUND_CID>
5472313

> <PUBCHEM_COMPOUND_CANONICALIZED>
1

> <PUBCHEM_CACTVS_COMPLEXITY>
650

> <PUBCHEM_CACTVS_HBOND_ACCEPTOR>
3

> <PUBCHEM_CACTVS_HBOND_DONOR>
3

> <PUBCHEM_CACTVS_ROTATABLE_BOND>
2

> <PUBCHEM_CACTVS_SUBSKEYS>
AAADccB7MAAAAgAAAAAAAAAAAAAAAWIAAAAwQAAAAAAAAFgB8AAAHgA0CAAADAiDngAwwPLZkACoAyVyVACCgCAhEiAomSEwdNgIYPrA1dGUJAhgkADIyQcciICOAAAAAAACAAAAAAAAAAQAAAAAAAAAAA==

> <PUBCHEM_IUPAC_OPENEYE_NAME>
3-[3-(hydroxyamino)-1H-indol-2-yl]-5-iodo-indol-2-one

> <PUBCHEM_IUPAC_CAS_NAME>
3-[3-(hydroxyamino)-1H-indol-2-yl]-5-iodo-2-indolone

> <PUBCHEM_IUPAC_NAME>
3-[3-(hydroxyamino)-1H-indol-2-yl]-5-iodoindol-2-one

> <PUBCHEM_IUPAC_SYSTEMATIC_NAME>
5-iodanyl-3-[3-(oxidanylamino)-1H-indol-2-yl]indol-2-one

> <PUBCHEM_IUPAC_TRADITIONAL_NAME>
3-[3-(hydroxyamino)-1H-indol-2-yl]-5-iodo-indol-2-one

> <PUBCHEM_IUPAC_INCHI>
InChI=1S/C16H10IN3O2/c17-8-5-6-12-10(7-8)13(16(21)19-12)15-14(20-22)9-3-1-2-4-11(9)18-15/h1-7,18,20,22H

> <PUBCHEM_IUPAC_INCHIKEY>
TVRGIIYSFNARIN-UHFFFAOYSA-N

> <PUBCHEM_XLOGP3_AA>
2.4

> <PUBCHEM_EXACT_MASS>
402.982

> <PUBCHEM_MOLECULAR_FORMULA>
C16H10IN3O2

> <PUBCHEM_MOLECULAR_WEIGHT>
403.179

> <PUBCHEM_OPENEYE_CAN_SMILES>
C1=CC=C2C(=C1)C(=C(N2)C3=C4C=C(C=CC4=NC3=O)I)NO

> <PUBCHEM_OPENEYE_ISO_SMILES>
C1=CC=C2C(=C1)C(=C(N2)C3=C4C=C(C=CC4=NC3=O)I)NO

> <PUBCHEM_CACTVS_TPSA>
77.5

> <PUBCHEM_MONOISOTOPIC_WEIGHT>
402.982

> <PUBCHEM_TOTAL_CHARGE>
0

> <PUBCHEM_HEAVY_ATOM_COUNT>
22

> <PUBCHEM_ATOM_DEF_STEREO_COUNT>
0

> <PUBCHEM_ATOM_UDEF_STEREO_COUNT>
0

> <PUBCHEM_BOND_DEF_STEREO_COUNT>
0

> <PUBCHEM_BOND_UDEF_STEREO_COUNT>
0

> <PUBCHEM_ISOTOPIC_ATOM_COUNT>
0

> <PUBCHEM_COMPONENT_COUNT>
1

> <PUBCHEM_CACTVS_TAUTO_COUNT>
78

> <PUBCHEM_COORDINATE_TYPE>
1
5
255

> <PUBCHEM_BONDANNOTATIONS>
10  11  8
10  15  8
11  16  8
12  13  8
12  17  8
13  20  8
15  18  8
16  19  8
17  21  8
18  19  8
20  22  8
21  22  8
4  11  8
4  7  8
7  9  8
9  10  8

$$$$
6419812
  -OEChem-11021604552D

 41 44  0     0  0  0  0  0  0999 V2000
    2.0000   -2.7787    0.0000 O   0  0  0  0  0  0  0  0  0  0  0  0
    4.5981   -1.2787    0.0000 N   0  0  0  0  0  0  0  0  0  0  0  0
    7.1962   -1.7787    0.0000 N   0  0  0  0  0  0  0  0  0  0  0  0
    6.3301   -1.2787    0.0000 N   0  0  0  0  0  0  0  0  0  0  0  0
    8.1424   -3.0834    0.0000 N   0  0  0  0  0  0  0  0  0  0  0  0
    9.6957    3.2787    0.0000 N   0  0  0  0  0  0  0  0  0  0  0  0
    3.7320   -1.7787    0.0000 C   0  0  0  0  0  0  0  0  0  0  0  0
    3.7320   -2.7787    0.0000 C   0  0  0  0  0  0  0  0  0  0  0  0
    2.8660   -1.2787    0.0000 C   0  0  0  0  0  0  0  0  0  0  0  0
    2.8660   -3.2787    0.0000 C   0  0  0  0  0  0  0  0  0  0  0  0
    2.0000   -1.7787    0.0000 C   0  0  0  0  0  0  0  0  0  0  0  0
    5.4641   -1.7787    0.0000 C   0  0  0  0  0  0  0  0  0  0  0  0
    5.4641   -2.7787    0.0000 C   0  0  0  0  0  0  0  0  0  0  0  0
    7.1962   -2.7787    0.0000 C   0  0  0  0  0  0  0  0  0  0  0  0
    8.1424   -1.4739    0.0000 C   0  0  0  0  0  0  0  0  0  0  0  0
    6.3301   -3.2787    0.0000 C   0  0  0  0  0  0  0  0  0  0  0  0
    8.4530   -0.5234    0.0000 C   0  0  0  0  0  0  0  0  0  0  0  0
    8.7260   -2.2787    0.0000 C   0  0  0  0  0  0  0  0  0  0  0  0
    9.4315   -0.3172    0.0000 C   0  0  0  0  0  0  0  0  0  0  0  0
    7.7852    0.2209    0.0000 C   0  0  0  0  0  0  0  0  0  0  0  0
    9.7422    0.6333    0.0000 C   0  0  0  0  0  0  0  0  0  0  0  0
    8.0958    1.1714    0.0000 C   0  0  0  0  0  0  0  0  0  0  0  0
    9.0744    1.3776    0.0000 C   0  0  0  0  0  0  0  0  0  0  0  0
    9.3850    2.3282    0.0000 C   0  0  0  0  0  0  0  0  0  0  0  0
    3.7320   -1.1587    0.0000 H   0  0  0  0  0  0  0  0  0  0  0  0
    3.9441   -3.3613    0.0000 H   0  0  0  0  0  0  0  0  0  0  0  0
    4.3426   -2.6710    0.0000 H   0  0  0  0  0  0  0  0  0  0  0  0
    3.2646   -0.8037    0.0000 H   0  0  0  0  0  0  0  0  0  0  0  0
    2.4675   -0.8037    0.0000 H   0  0  0  0  0  0  0  0  0  0  0  0
    2.4675   -3.7536    0.0000 H   0  0  0  0  0  0  0  0  0  0  0  0
    3.2646   -3.7536    0.0000 H   0  0  0  0  0  0  0  0  0  0  0  0
    1.7880   -1.1961    0.0000 H   0  0  0  0  0  0  0  0  0  0  0  0
    1.3894   -1.8863    0.0000 H   0  0  0  0  0  0  0  0  0  0  0  0
    4.5981   -0.6587    0.0000 H   0  0  0  0  0  0  0  0  0  0  0  0
    4.9272   -3.0887    0.0000 H   0  0  0  0  0  0  0  0  0  0  0  0
    6.3301   -3.8987    0.0000 H   0  0  0  0  0  0  0  0  0  0  0  0
    9.3460   -2.2787    0.0000 H   0  0  0  0  0  0  0  0  0  0  0  0
    9.8456   -0.7787    0.0000 H   0  0  0  0  0  0  0  0  0  0  0  0
    7.1785    0.0930    0.0000 H   0  0  0  0  0  0  0  0  0  0  0  0
   10.3489    0.7612    0.0000 H   0  0  0  0  0  0  0  0  0  0  0  0
    7.6818    1.6329    0.0000 H   0  0  0  0  0  0  0  0  0  0  0  0
  1 10  1  0  0  0  0
  1 11  1  0  0  0  0
  2  7  1  0  0  0  0
  2 12  1  0  0  0  0
  2 34  1  0  0  0  0
  3  4  1  0  0  0  0
  3 14  1  0  0  0  0
  3 15  1  0  0  0  0
  4 12  2  0  0  0  0
  5 14  2  0  0  0  0
  5 18  1  0  0  0  0
  6 24  3  0  0  0  0
  7  8  1  0  0  0  0
  7  9  1  0  0  0  0
  7 25  1  0  0  0  0
  8 10  1  0  0  0  0
  8 26  1  0  0  0  0
  8 27  1  0  0  0  0
  9 11  1  0  0  0  0
  9 28  1  0  0  0  0
  9 29  1  0  0  0  0
 10 30  1  0  0  0  0
 10 31  1  0  0  0  0
 11 32  1  0  0  0  0
 11 33  1  0  0  0  0
 12 13  1  0  0  0  0
 13 16  2  0  0  0  0
 13 35  1  0  0  0  0
 14 16  1  0  0  0  0
 15 17  1  0  0  0  0
 15 18  2  0  0  0  0
 16 36  1  0  0  0  0
 17 19  2  0  0  0  0
 17 20  1  0  0  0  0
 18 37  1  0  0  0  0
 19 21  1  0  0  0  0
 19 38  1  0  0  0  0
 20 22  2  0  0  0  0
 20 39  1  0  0  0  0
 21 23  2  0  0  0  0
 21 40  1  0  0  0  0
 22 23  1  0  0  0  0
 22 41  1  0  0  0  0
 23 24  1  0  0  0  0
M  END
> <PUBCHEM_COMPOUND_CID>
6419812

> <PUBCHEM_COMPOUND_CANONICALIZED>
1

> <PUBCHEM_CACTVS_COMPLEXITY>
463

> <PUBCHEM_CACTVS_HBOND_ACCEPTOR>
5

> <PUBCHEM_CACTVS_HBOND_DONOR>
1

> <PUBCHEM_CACTVS_ROTATABLE_BOND>
3

> <PUBCHEM_CACTVS_SUBSKEYS>
AAADceB7oAAAAAAAAAAAAAAAAAAAAWAAAAA8SIAAAAAAAFgB8AAAHgAYAAAADCjhnwY9sJ7IFACyBzZnZACyhC8xEqAd2KA4dJiI6OLAmZGWoAh+mALIyC+QgMAOQAAAAAAAAACAAAAAAAAAAAAAAAAAAA==

> <PUBCHEM_IUPAC_OPENEYE_NAME>
4-[6-(tetrahydropyran-4-ylamino)imidazo[1,2-b]pyridazin-3-yl]benzonitrile

> <PUBCHEM_IUPAC_CAS_NAME>
4-[6-(4-oxanylamino)-3-imidazo[1,2-b]pyridazinyl]benzonitrile

> <PUBCHEM_IUPAC_NAME>
4-[6-(oxan-4-ylamino)imidazo[1,2-b]pyridazin-3-yl]benzonitrile

> <PUBCHEM_IUPAC_SYSTEMATIC_NAME>
4-[6-(oxan-4-ylamino)imidazo[1,2-b]pyridazin-3-yl]benzenecarbonitrile

> <PUBCHEM_IUPAC_TRADITIONAL_NAME>
4-[6-(tetrahydropyran-4-ylamino)imidazo[1,2-b]pyridazin-3-yl]benzonitrile

> <PUBCHEM_IUPAC_INCHI>
InChI=1S/C18H17N5O/c19-11-13-1-3-14(4-2-13)16-12-20-18-6-5-17(22-23(16)18)21-15-7-9-24-10-8-15/h1-6,12,15H,7-10H2,(H,21,22)

> <PUBCHEM_IUPAC_INCHIKEY>
PHLHEYALRJOPMB-UHFFFAOYSA-N

> <PUBCHEM_XLOGP3_AA>
2.4

> <PUBCHEM_EXACT_MASS>
319.143

> <PUBCHEM_MOLECULAR_FORMULA>
C18H17N5O

> <PUBCHEM_MOLECULAR_WEIGHT>
319.368

> <PUBCHEM_OPENEYE_CAN_SMILES>
C1COCCC1NC2=NN3C(=NC=C3C4=CC=C(C=C4)C#N)C=C2

> <PUBCHEM_OPENEYE_ISO_SMILES>
C1COCCC1NC2=NN3C(=NC=C3C4=CC=C(C=C4)C#N)C=C2

> <PUBCHEM_CACTVS_TPSA>
75.2

> <PUBCHEM_MONOISOTOPIC_WEIGHT>
319.143

> <PUBCHEM_TOTAL_CHARGE>
0

> <PUBCHEM_HEAVY_ATOM_COUNT>
24

> <PUBCHEM_ATOM_DEF_STEREO_COUNT>
0

> <PUBCHEM_ATOM_UDEF_STEREO_COUNT>
0

> <PUBCHEM_BOND_DEF_STEREO_COUNT>
0

> <PUBCHEM_BOND_UDEF_STEREO_COUNT>
0

> <PUBCHEM_ISOTOPIC_ATOM_COUNT>
0

> <PUBCHEM_COMPONENT_COUNT>
1

> <PUBCHEM_CACTVS_TAUTO_COUNT>
2

> <PUBCHEM_COORDINATE_TYPE>
1
5
255

> <PUBCHEM_BONDANNOTATIONS>
12  13  8
13  16  8
14  16  8
15  18  8
17  19  8
17  20  8
19  21  8
20  22  8
21  23  8
22  23  8
3  14  8
3  15  8
3  4  8
4  12  8
5  14  8
5  18  8

$$$$
3035462
  -OEChem-11021604552D

 29 31  0     0  0  0  0  0  0999 V2000
    6.7568   -1.3158    0.0000 Br  0  0  0  0  0  0  0  0  0  0  0  0
    3.6781   -3.4296    0.0000 O   0  0  0  0  0  0  0  0  0  0  0  0
    2.0000    1.4223    0.0000 O   0  0  0  0  0  0  0  0  0  0  0  0
    2.4747   -2.2382    0.0000 N   0  0  0  0  0  0  0  0  0  0  0  0
    5.1772   -2.1285    0.0000 N   0  0  0  0  0  0  0  0  0  0  0  0
    4.5748    1.1647    0.0000 N   0  0  0  0  0  0  0  0  0  0  0  0
    3.5041    2.3779    0.0000 N   0  0  0  0  0  0  0  0  0  0  0  0
    5.2299    2.8219    0.0000 N   0  0  0  0  0  0  0  0  0  0  0  0
    3.4395   -0.2089    0.0000 C   0  0  0  0  0  0  0  0  0  0  0  0
    2.4657   -0.4363    0.0000 C   0  0  0  0  0  0  0  0  0  0  0  0
    4.2245   -0.8285    0.0000 C   0  0  0  0  0  0  0  0  0  0  0  0
    2.0364   -1.3394    0.0000 C   0  0  0  0  0  0  0  0  0  0  0  0
    4.2295   -1.8285    0.0000 C   0  0  0  0  0  0  0  0  0  0  0  0
    3.6572    0.7671    0.0000 C   0  0  0  0  0  0  0  0  0  0  0  0
    5.1692   -0.5190    0.0000 C   0  0  0  0  0  0  0  0  0  0  0  0
    3.4508   -2.4558    0.0000 C   0  0  0  0  0  0  0  0  0  0  0  0
    5.7568   -1.3208    0.0000 C   0  0  0  0  0  0  0  0  0  0  0  0
    2.9955    1.5169    0.0000 C   0  0  0  0  0  0  0  0  0  0  0  0
    4.4802    2.1603    0.0000 C   0  0  0  0  0  0  0  0  0  0  0  0
    2.4626    0.1837    0.0000 H   0  0  0  0  0  0  0  0  0  0  0  0
    1.8606   -0.3013    0.0000 H   0  0  0  0  0  0  0  0  0  0  0  0
    1.5497   -0.9552    0.0000 H   0  0  0  0  0  0  0  0  0  0  0  0
    1.5536   -1.7284    0.0000 H   0  0  0  0  0  0  0  0  0  0  0  0
    2.0906   -2.7248    0.0000 H   0  0  0  0  0  0  0  0  0  0  0  0
    5.3588    0.0712    0.0000 H   0  0  0  0  0  0  0  0  0  0  0  0
    5.3727   -2.7168    0.0000 H   0  0  0  0  0  0  0  0  0  0  0  0
    5.1086    0.8494    0.0000 H   0  0  0  0  0  0  0  0  0  0  0  0
    5.1071    3.4296    0.0000 H   0  0  0  0  0  0  0  0  0  0  0  0
    5.8177    2.6245    0.0000 H   0  0  0  0  0  0  0  0  0  0  0  0
  1 17  1  0  0  0  0
  2 16  2  0  0  0  0
  3 18  2  0  0  0  0
  4 12  1  0  0  0  0
  4 16  1  0  0  0  0
  4 24  1  0  0  0  0
  5 13  1  0  0  0  0
  5 17  1  0  0  0  0
  5 26  1  0  0  0  0
  6 14  1  0  0  0  0
  6 19  1  0  0  0  0
  6 27  1  0  0  0  0
  7 18  1  0  0  0  0
  7 19  2  0  0  0  0
  8 19  1  0  0  0  0
  8 28  1  0  0  0  0
  8 29  1  0  0  0  0
  9 10  1  0  0  0  0
  9 11  1  0  0  0  0
  9 14  2  0  0  0  0
 10 12  1  0  0  0  0
 10 20  1  0  0  0  0
 10 21  1  0  0  0  0
 11 13  2  0  0  0  0
 11 15  1  0  0  0  0
 12 22  1  0  0  0  0
 12 23  1  0  0  0  0
 13 16  1  0  0  0  0
 14 18  1  0  0  0  0
 15 17  2  0  0  0  0
 15 25  1  0  0  0  0
M  END
> <PUBCHEM_COMPOUND_CID>
3035462

> <PUBCHEM_COMPOUND_CANONICALIZED>
1

> <PUBCHEM_CACTVS_COMPLEXITY>
515

> <PUBCHEM_CACTVS_HBOND_ACCEPTOR>
2

> <PUBCHEM_CACTVS_HBOND_DONOR>
4

> <PUBCHEM_CACTVS_ROTATABLE_BOND>
0

> <PUBCHEM_CACTVS_SUBSKEYS>
AAADccBzsAAAEAAAAAAAAAAAAAAAAWIAAAAAAAAABYAAAACxgAAAHgBQAAABPAjBngQxgJLJkACoAyVydACCgCEnAiQBmaG4ZPiIYPLAnLGUAQhglgLIyxcYCQAOAAAAAAAAAAAAAAAAAAAAAAAAAAAAAA==

> <PUBCHEM_IUPAC_OPENEYE_NAME>
(4Z)-4-(2-amino-4-oxo-1H-imidazol-5-ylidene)-2-bromo-1,5,6,7-tetrahydropyrrolo[2,3-c]azepin-8-one

> <PUBCHEM_IUPAC_CAS_NAME>
(4Z)-4-(2-amino-4-oxo-1H-imidazol-5-ylidene)-2-bromo-1,5,6,7-tetrahydropyrrolo[2,3-c]azepin-8-one

> <PUBCHEM_IUPAC_NAME>
(4Z)-4-(2-amino-4-oxo-1H-imidazol-5-ylidene)-2-bromo-1,5,6,7-tetrahydropyrrolo[2,3-c]azepin-8-one

> <PUBCHEM_IUPAC_SYSTEMATIC_NAME>
(4Z)-4-(2-azanyl-4-oxidanylidene-1H-imidazol-5-ylidene)-2-bromanyl-1,5,6,7-tetrahydropyrrolo[2,3-c]azepin-8-one

> <PUBCHEM_IUPAC_TRADITIONAL_NAME>
(4Z)-4-(2-amino-5-keto-2-imidazolin-4-ylidene)-2-bromo-1,5,6,7-tetrahydropyrrol[2,3-c]azepin-8-one

> <PUBCHEM_IUPAC_INCHI>
InChI=1S/C11H10BrN5O2/c12-6-3-5-4(7-10(19)17-11(13)16-7)1-2-14-9(18)8(5)15-6/h3,15H,1-2H2,(H,14,18)(H3,13,16,17,19)/b7-4-

> <PUBCHEM_IUPAC_INCHIKEY>
ATBAETXFFCOZOY-DAXSKMNVSA-N

> <PUBCHEM_XLOGP3_AA>
-0.7

> <PUBCHEM_EXACT_MASS>
323.002

> <PUBCHEM_MOLECULAR_FORMULA>
C11H10BrN5O2

> <PUBCHEM_MOLECULAR_WEIGHT>
324.138

> <PUBCHEM_OPENEYE_CAN_SMILES>
C1CNC(=O)C2=C(C1=C3C(=O)N=C(N3)N)C=C(N2)Br

> <PUBCHEM_OPENEYE_ISO_SMILES>
C\1CNC(=O)C2=C(/C1=C\3/C(=O)N=C(N3)N)C=C(N2)Br

> <PUBCHEM_CACTVS_TPSA>
112

> <PUBCHEM_MONOISOTOPIC_WEIGHT>
323.002

> <PUBCHEM_TOTAL_CHARGE>
0

> <PUBCHEM_HEAVY_ATOM_COUNT>
19

> <PUBCHEM_ATOM_DEF_STEREO_COUNT>
0

> <PUBCHEM_ATOM_UDEF_STEREO_COUNT>
0

> <PUBCHEM_BOND_DEF_STEREO_COUNT>
1

> <PUBCHEM_BOND_UDEF_STEREO_COUNT>
0

> <PUBCHEM_ISOTOPIC_ATOM_COUNT>
0

> <PUBCHEM_COMPONENT_COUNT>
1

> <PUBCHEM_CACTVS_TAUTO_COUNT>
151

> <PUBCHEM_COORDINATE_TYPE>
1
5
255

> <PUBCHEM_BONDANNOTATIONS>
11  13  8
11  15  8
15  17  8
5  13  8
5  17  8

$$$$
6419833
  -OEChem-11021604552D

 25 27  0     0  0  0  0  0  0999 V2000
    6.2619   -1.2924    0.0000 O   0  0  0  0  0  0  0  0  0  0  0  0
    4.6783   -2.0971    0.0000 N   0  0  0  0  0  0  0  0  0  0  0  0
    4.5307    2.1850    0.0000 N   0  0  0  0  0  0  0  0  0  0  0  0
    2.9212    2.0186    0.0000 N   0  0  0  0  0  0  0  0  0  0  0  0
    3.7320   -0.7924    0.0000 C   0  0  0  0  0  0  0  0  0  0  0  0
    4.6783   -0.4877    0.0000 C   0  0  0  0  0  0  0  0  0  0  0  0
    3.7320   -1.7924    0.0000 C   0  0  0  0  0  0  0  0  0  0  0  0
    5.2619   -1.2924    0.0000 C   0  0  0  0  0  0  0  0  0  0  0  0
    4.9889    0.4629    0.0000 C   0  0  0  0  0  0  0  0  0  0  0  0
    2.8660   -0.2924    0.0000 C   0  0  0  0  0  0  0  0  0  0  0  0
    2.8660   -2.2924    0.0000 C   0  0  0  0  0  0  0  0  0  0  0  0
    4.3211    1.2072    0.0000 C   0  0  0  0  0  0  0  0  0  0  0  0
    2.0000   -0.7924    0.0000 C   0  0  0  0  0  0  0  0  0  0  0  0
    2.0000   -1.7924    0.0000 C   0  0  0  0  0  0  0  0  0  0  0  0
    3.3264    1.1044    0.0000 C   0  0  0  0  0  0  0  0  0  0  0  0
    3.6655    2.6864    0.0000 C   0  0  0  0  0  0  0  0  0  0  0  0
    4.8709   -2.6864    0.0000 H   0  0  0  0  0  0  0  0  0  0  0  0
    5.5956    0.5907    0.0000 H   0  0  0  0  0  0  0  0  0  0  0  0
    2.8660    0.3276    0.0000 H   0  0  0  0  0  0  0  0  0  0  0  0
    2.8660   -2.9124    0.0000 H   0  0  0  0  0  0  0  0  0  0  0  0
    1.4631   -0.4824    0.0000 H   0  0  0  0  0  0  0  0  0  0  0  0
    1.4631   -2.1024    0.0000 H   0  0  0  0  0  0  0  0  0  0  0  0
    5.0975    2.4362    0.0000 H   0  0  0  0  0  0  0  0  0  0  0  0
    3.0155    0.5680    0.0000 H   0  0  0  0  0  0  0  0  0  0  0  0
    3.6018    3.3032    0.0000 H   0  0  0  0  0  0  0  0  0  0  0  0
  1  8  2  0  0  0  0
  2  7  1  0  0  0  0
  2  8  1  0  0  0  0
  2 17  1  0  0  0  0
  3 12  1  0  0  0  0
  3 16  1  0  0  0  0
  3 23  1  0  0  0  0
  4 15  1  0  0  0  0
  4 16  2  0  0  0  0
  5  6  1  0  0  0  0
  5  7  1  0  0  0  0
  5 10  2  0  0  0  0
  6  8  1  0  0  0  0
  6  9  2  0  0  0  0
  7 11  2  0  0  0  0
  9 12  1  0  0  0  0
  9 18  1  0  0  0  0
 10 13  1  0  0  0  0
 10 19  1  0  0  0  0
 11 14  1  0  0  0  0
 11 20  1  0  0  0  0
 12 15  2  0  0  0  0
 13 14  2  0  0  0  0
 13 21  1  0  0  0  0
 14 22  1  0  0  0  0
 15 24  1  0  0  0  0
 16 25  1  0  0  0  0
M  END
> <PUBCHEM_COMPOUND_CID>
6419833

> <PUBCHEM_COMPOUND_CANONICALIZED>
1

> <PUBCHEM_CACTVS_COMPLEXITY>
326

> <PUBCHEM_CACTVS_HBOND_ACCEPTOR>
2

> <PUBCHEM_CACTVS_HBOND_DONOR>
2

> <PUBCHEM_CACTVS_ROTATABLE_BOND>
1

> <PUBCHEM_CACTVS_SUBSKEYS>
AAADccBzIAAAAAAAAAAAAAAAAAAAAWLAAAAwAAAAAAAAAFgBwAAAHgAQAAAADAjBngQ90JbJkACoAzV3dACCgC2xEqAJ2YE4dNiIaDLAnZGUIAholALIyacciICOAAAAAAACAAAAAAAAAAQAAAAAAAAAAA==

> <PUBCHEM_IUPAC_OPENEYE_NAME>
(3E)-3-(1H-imidazol-5-ylmethylene)indolin-2-one

> <PUBCHEM_IUPAC_CAS_NAME>
(3E)-3-(1H-imidazol-5-ylmethylidene)-1H-indol-2-one

> <PUBCHEM_IUPAC_NAME>
(3E)-3-(1H-imidazol-5-ylmethylidene)-1H-indol-2-one

> <PUBCHEM_IUPAC_SYSTEMATIC_NAME>
(3E)-3-(1H-imidazol-5-ylmethylidene)-1H-indol-2-one

> <PUBCHEM_IUPAC_TRADITIONAL_NAME>
(3E)-3-(1H-imidazol-5-ylmethylene)oxindole

> <PUBCHEM_IUPAC_INCHI>
InChI=1S/C12H9N3O/c16-12-10(5-8-6-13-7-14-8)9-3-1-2-4-11(9)15-12/h1-7H,(H,13,14)(H,15,16)/b10-5+

> <PUBCHEM_IUPAC_INCHIKEY>
VEEGZPWAAPPXRB-BJMVGYQFSA-N

> <PUBCHEM_XLOGP3_AA>
1.1

> <PUBCHEM_EXACT_MASS>
211.075

> <PUBCHEM_MOLECULAR_FORMULA>
C12H9N3O

> <PUBCHEM_MOLECULAR_WEIGHT>
211.224

> <PUBCHEM_OPENEYE_CAN_SMILES>
C1=CC=C2C(=C1)C(=CC3=CN=CN3)C(=O)N2

> <PUBCHEM_OPENEYE_ISO_SMILES>
C1=CC=C2C(=C1)/C(=C\C3=CN=CN3)/C(=O)N2

> <PUBCHEM_CACTVS_TPSA>
57.8

> <PUBCHEM_MONOISOTOPIC_WEIGHT>
211.075

> <PUBCHEM_TOTAL_CHARGE>
0

> <PUBCHEM_HEAVY_ATOM_COUNT>
16

> <PUBCHEM_ATOM_DEF_STEREO_COUNT>
0

> <PUBCHEM_ATOM_UDEF_STEREO_COUNT>
0

> <PUBCHEM_BOND_DEF_STEREO_COUNT>
1

> <PUBCHEM_BOND_UDEF_STEREO_COUNT>
0

> <PUBCHEM_ISOTOPIC_ATOM_COUNT>
0

> <PUBCHEM_COMPONENT_COUNT>
1

> <PUBCHEM_CACTVS_TAUTO_COUNT>
7

> <PUBCHEM_COORDINATE_TYPE>
1
5
255

> <PUBCHEM_BONDANNOTATIONS>
10  13  8
11  14  8
12  15  8
13  14  8
3  12  8
3  16  8
4  15  8
4  16  8
5  10  8
5  7  8
7  11  8

$$$$
665387
  -OEChem-11021604552D

 21 23  0     0  0  0  0  0  0999 V2000
    5.2152   -1.9914    0.0000 S   0  0  0  0  0  0  0  0  0  0  0  0
    4.9395    1.3786    0.0000 S   0  0  0  0  0  0  0  0  0  0  0  0
    3.4030    0.8134    0.0000 O   0  0  0  0  0  0  0  0  0  0  0  0
    2.5369   -0.6866    0.0000 N   0  0  0  0  0  0  0  0  0  0  0  0
    3.4030   -2.1866    0.0000 N   0  0  0  0  0  0  0  0  0  0  0  0
    5.2152   -0.3819    0.0000 C   0  0  0  0  0  0  0  0  0  0  0  0
    4.2690   -0.6866    0.0000 C   0  0  0  0  0  0  0  0  0  0  0  0
    4.2690   -1.6866    0.0000 C   0  0  0  0  0  0  0  0  0  0  0  0
    5.5259    0.5686    0.0000 C   0  0  0  0  0  0  0  0  0  0  0  0
    5.7988   -1.1866    0.0000 C   0  0  0  0  0  0  0  0  0  0  0  0
    3.4030   -0.1866    0.0000 C   0  0  0  0  0  0  0  0  0  0  0  0
    6.4775    0.8760    0.0000 C   0  0  0  0  0  0  0  0  0  0  0  0
    2.5369   -1.6866    0.0000 C   0  0  0  0  0  0  0  0  0  0  0  0
    6.4792    1.8760    0.0000 C   0  0  0  0  0  0  0  0  0  0  0  0
    5.5287    2.1866    0.0000 C   0  0  0  0  0  0  0  0  0  0  0  0
    6.4188   -1.1866    0.0000 H   0  0  0  0  0  0  0  0  0  0  0  0
    6.9784    0.5107    0.0000 H   0  0  0  0  0  0  0  0  0  0  0  0
    2.0000   -0.3766    0.0000 H   0  0  0  0  0  0  0  0  0  0  0  0
    2.0000   -1.9966    0.0000 H   0  0  0  0  0  0  0  0  0  0  0  0
    6.9814    2.2395    0.0000 H   0  0  0  0  0  0  0  0  0  0  0  0
    5.3381    2.7766    0.0000 H   0  0  0  0  0  0  0  0  0  0  0  0
  1  8  1  0  0  0  0
  1 10  1  0  0  0  0
  2  9  1  0  0  0  0
  2 15  1  0  0  0  0
  3 11  2  0  0  0  0
  4 11  1  0  0  0  0
  4 13  1  0  0  0  0
  4 18  1  0  0  0  0
  5  8  1  0  0  0  0
  5 13  2  0  0  0  0
  6  7  1  0  0  0  0
  6  9  1  0  0  0  0
  6 10  2  0  0  0  0
  7  8  2  0  0  0  0
  7 11  1  0  0  0  0
  9 12  2  0  0  0  0
 10 16  1  0  0  0  0
 12 14  1  0  0  0  0
 12 17  1  0  0  0  0
 13 19  1  0  0  0  0
 14 15  2  0  0  0  0
 14 20  1  0  0  0  0
 15 21  1  0  0  0  0
M  END
> <PUBCHEM_COMPOUND_CID>
665387

> <PUBCHEM_COMPOUND_CANONICALIZED>
1

> <PUBCHEM_CACTVS_COMPLEXITY>
308

> <PUBCHEM_CACTVS_HBOND_ACCEPTOR>
4

> <PUBCHEM_CACTVS_HBOND_DONOR>
1

> <PUBCHEM_CACTVS_ROTATABLE_BOND>
1

> <PUBCHEM_CACTVS_SUBSKEYS>
AAADcYBzIABgAAAAAAAAAAAAAAAAASJAAAAgAAAAAAAAAEAB4AAAHgQQAAAADACF2ASxgYLAAAisAiFTdACDAIFkCBBJiJkIRMgIIDqg3ZGEIYhgggAoyUcYiECOgAAAAAAAAAAAAAAAAAAAAAAAAAAAAA==

> <PUBCHEM_IUPAC_OPENEYE_NAME>
5-(2-thienyl)-3H-thieno[2,3-d]pyrimidin-4-one

> <PUBCHEM_IUPAC_CAS_NAME>
5-thiophen-2-yl-3H-thieno[2,3-d]pyrimidin-4-one

> <PUBCHEM_IUPAC_NAME>
5-thiophen-2-yl-3H-thieno[2,3-d]pyrimidin-4-one

> <PUBCHEM_IUPAC_SYSTEMATIC_NAME>
5-thiophen-2-yl-3H-thieno[2,3-d]pyrimidin-4-one

> <PUBCHEM_IUPAC_TRADITIONAL_NAME>
5-(2-thienyl)-3H-thieno[2,3-d]pyrimidin-4-one

> <PUBCHEM_IUPAC_INCHI>
InChI=1S/C10H6N2OS2/c13-9-8-6(7-2-1-3-14-7)4-15-10(8)12-5-11-9/h1-5H,(H,11,12,13)

> <PUBCHEM_IUPAC_INCHIKEY>
LFUBTAOTPHKKOS-UHFFFAOYSA-N

> <PUBCHEM_XLOGP3_AA>
2.1

> <PUBCHEM_EXACT_MASS>
233.992

> <PUBCHEM_MOLECULAR_FORMULA>
C10H6N2OS2

> <PUBCHEM_MOLECULAR_WEIGHT>
234.291

> <PUBCHEM_OPENEYE_CAN_SMILES>
C1=CSC(=C1)C2=CSC3=C2C(=O)NC=N3

> <PUBCHEM_OPENEYE_ISO_SMILES>
C1=CSC(=C1)C2=CSC3=C2C(=O)NC=N3

> <PUBCHEM_CACTVS_TPSA>
97.9

> <PUBCHEM_MONOISOTOPIC_WEIGHT>
233.992

> <PUBCHEM_TOTAL_CHARGE>
0

> <PUBCHEM_HEAVY_ATOM_COUNT>
15

> <PUBCHEM_ATOM_DEF_STEREO_COUNT>
0

> <PUBCHEM_ATOM_UDEF_STEREO_COUNT>
0

> <PUBCHEM_BOND_DEF_STEREO_COUNT>
0

> <PUBCHEM_BOND_UDEF_STEREO_COUNT>
0

> <PUBCHEM_ISOTOPIC_ATOM_COUNT>
0

> <PUBCHEM_COMPONENT_COUNT>
1

> <PUBCHEM_CACTVS_TAUTO_COUNT>
4

> <PUBCHEM_COORDINATE_TYPE>
1
5
255

> <PUBCHEM_BONDANNOTATIONS>
1  10  8
1  8  8
12  14  8
14  15  8
2  15  8
2  9  8
4  11  8
4  13  8
5  13  8
5  8  8
6  10  8
6  7  8
7  11  8
7  8  8
9  12  8

$$$$
9549290
  -OEChem-11021604552D

 34 36  0     0  0  0  0  0  0999 V2000
    6.2619   -1.9157    0.0000 O   0  0  0  0  0  0  0  0  0  0  0  0
    8.5458    2.3592    0.0000 O   0  0  0  0  0  0  0  0  0  0  0  0
    4.6783   -2.7204    0.0000 N   0  0  0  0  0  0  0  0  0  0  0  0
    5.9674    0.0458    0.0000 N   0  0  0  0  0  0  0  0  0  0  0  0
    3.7320   -1.4157    0.0000 C   0  0  0  0  0  0  0  0  0  0  0  0
    4.6783   -1.1110    0.0000 C   0  0  0  0  0  0  0  0  0  0  0  0
    3.7320   -2.4157    0.0000 C   0  0  0  0  0  0  0  0  0  0  0  0
    5.2619   -1.9157    0.0000 C   0  0  0  0  0  0  0  0  0  0  0  0
    2.8660   -0.9157    0.0000 C   0  0  0  0  0  0  0  0  0  0  0  0
    4.9889   -0.1605    0.0000 C   0  0  0  0  0  0  0  0  0  0  0  0
    2.8660   -2.9157    0.0000 C   0  0  0  0  0  0  0  0  0  0  0  0
    2.0000   -1.4157    0.0000 C   0  0  0  0  0  0  0  0  0  0  0  0
    6.2781    0.9963    0.0000 C   0  0  0  0  0  0  0  0  0  0  0  0
    2.0000   -2.4157    0.0000 C   0  0  0  0  0  0  0  0  0  0  0  0
    7.2566    1.2025    0.0000 C   0  0  0  0  0  0  0  0  0  0  0  0
    5.6103    1.7406    0.0000 C   0  0  0  0  0  0  0  0  0  0  0  0
    7.5673    2.1530    0.0000 C   0  0  0  0  0  0  0  0  0  0  0  0
    5.9209    2.6911    0.0000 C   0  0  0  0  0  0  0  0  0  0  0  0
    6.8994    2.8973    0.0000 C   0  0  0  0  0  0  0  0  0  0  0  0
    8.8564    3.3098    0.0000 C   0  0  0  0  0  0  0  0  0  0  0  0
    4.8709   -3.3098    0.0000 H   0  0  0  0  0  0  0  0  0  0  0  0
    2.8660   -0.2957    0.0000 H   0  0  0  0  0  0  0  0  0  0  0  0
    4.5749    0.3010    0.0000 H   0  0  0  0  0  0  0  0  0  0  0  0
    2.8660   -3.5357    0.0000 H   0  0  0  0  0  0  0  0  0  0  0  0
    6.3815   -0.4157    0.0000 H   0  0  0  0  0  0  0  0  0  0  0  0
    1.4631   -1.1057    0.0000 H   0  0  0  0  0  0  0  0  0  0  0  0
    1.4631   -2.7257    0.0000 H   0  0  0  0  0  0  0  0  0  0  0  0
    7.6707    0.7410    0.0000 H   0  0  0  0  0  0  0  0  0  0  0  0
    5.0036    1.6127    0.0000 H   0  0  0  0  0  0  0  0  0  0  0  0
    5.5069    3.1526    0.0000 H   0  0  0  0  0  0  0  0  0  0  0  0
    7.0920    3.4866    0.0000 H   0  0  0  0  0  0  0  0  0  0  0  0
    9.4458    3.1172    0.0000 H   0  0  0  0  0  0  0  0  0  0  0  0
    9.0490    3.8991    0.0000 H   0  0  0  0  0  0  0  0  0  0  0  0
    8.2671    3.5024    0.0000 H   0  0  0  0  0  0  0  0  0  0  0  0
  1  8  2  0  0  0  0
  2 17  1  0  0  0  0
  2 20  1  0  0  0  0
  3  7  1  0  0  0  0
  3  8  1  0  0  0  0
  3 21  1  0  0  0  0
  4 10  1  0  0  0  0
  4 13  1  0  0  0  0
  4 25  1  0  0  0  0
  5  6  1  0  0  0  0
  5  7  1  0  0  0  0
  5  9  2  0  0  0  0
  6  8  1  0  0  0  0
  6 10  2  0  0  0  0
  7 11  2  0  0  0  0
  9 12  1  0  0  0  0
  9 22  1  0  0  0  0
 10 23  1  0  0  0  0
 11 14  1  0  0  0  0
 11 24  1  0  0  0  0
 12 14  2  0  0  0  0
 12 26  1  0  0  0  0
 13 15  2  0  0  0  0
 13 16  1  0  0  0  0
 14 27  1  0  0  0  0
 15 17  1  0  0  0  0
 15 28  1  0  0  0  0
 16 18  2  0  0  0  0
 16 29  1  0  0  0  0
 17 19  2  0  0  0  0
 18 19  1  0  0  0  0
 18 30  1  0  0  0  0
 19 31  1  0  0  0  0
 20 32  1  0  0  0  0
 20 33  1  0  0  0  0
 20 34  1  0  0  0  0
M  END
> <PUBCHEM_COMPOUND_CID>
9549290

> <PUBCHEM_COMPOUND_CANONICALIZED>
1

> <PUBCHEM_CACTVS_COMPLEXITY>
394

> <PUBCHEM_CACTVS_HBOND_ACCEPTOR>
3

> <PUBCHEM_CACTVS_HBOND_DONOR>
2

> <PUBCHEM_CACTVS_ROTATABLE_BOND>
3

> <PUBCHEM_CACTVS_SUBSKEYS>
AAADccB7MAAAAAAAAAAAAAAAAAAAAWAAAAAwYAAAAAAAAFgBQAAAHgAQAAAADAzBmAYyxoLABACIAiVWUACCCAAhIgAIiIEObMgMJjLEtZuEMChm1BnI6Mec2IOOAAAAAgACAAAAAAAEAAQAAAAAAAAAAA==

> <PUBCHEM_IUPAC_OPENEYE_NAME>
(3Z)-3-[(3-methoxyanilino)methylene]indolin-2-one

> <PUBCHEM_IUPAC_CAS_NAME>
(3Z)-3-[(3-methoxyanilino)methylidene]-1H-indol-2-one

> <PUBCHEM_IUPAC_NAME>
(3Z)-3-[(3-methoxyanilino)methylidene]-1H-indol-2-one

> <PUBCHEM_IUPAC_SYSTEMATIC_NAME>
(3Z)-3-[[(3-methoxyphenyl)amino]methylidene]-1H-indol-2-one

> <PUBCHEM_IUPAC_TRADITIONAL_NAME>
(3Z)-3-(m-anisidinomethylene)oxindole

> <PUBCHEM_IUPAC_INCHI>
InChI=1S/C16H14N2O2/c1-20-12-6-4-5-11(9-12)17-10-14-13-7-2-3-8-15(13)18-16(14)19/h2-10,17H,1H3,(H,18,19)/b14-10-

> <PUBCHEM_IUPAC_INCHIKEY>
GCTIURPJCNTKIH-UVTDQMKNSA-N

> <PUBCHEM_XLOGP3_AA>
2.6

> <PUBCHEM_EXACT_MASS>
266.106

> <PUBCHEM_MOLECULAR_FORMULA>
C16H14N2O2

> <PUBCHEM_MOLECULAR_WEIGHT>
266.3

> <PUBCHEM_OPENEYE_CAN_SMILES>
COC1=CC=CC(=C1)NC=C2C3=CC=CC=C3NC2=O

> <PUBCHEM_OPENEYE_ISO_SMILES>
COC1=CC=CC(=C1)N/C=C\2/C3=CC=CC=C3NC2=O

> <PUBCHEM_CACTVS_TPSA>
50.4

> <PUBCHEM_MONOISOTOPIC_WEIGHT>
266.106

> <PUBCHEM_TOTAL_CHARGE>
0

> <PUBCHEM_HEAVY_ATOM_COUNT>
20

> <PUBCHEM_ATOM_DEF_STEREO_COUNT>
0

> <PUBCHEM_ATOM_UDEF_STEREO_COUNT>
0

> <PUBCHEM_BOND_DEF_STEREO_COUNT>
1

> <PUBCHEM_BOND_UDEF_STEREO_COUNT>
0

> <PUBCHEM_ISOTOPIC_ATOM_COUNT>
0

> <PUBCHEM_COMPONENT_COUNT>
1

> <PUBCHEM_CACTVS_TAUTO_COUNT>
5

> <PUBCHEM_COORDINATE_TYPE>
1
5
255

> <PUBCHEM_BONDANNOTATIONS>
11  14  8
12  14  8
13  15  8
13  16  8
15  17  8
16  18  8
17  19  8
18  19  8
5  7  8
5  9  8
7  11  8
9  12  8

$$$$
1188017
  -OEChem-11021604552D

 41 43  0     0  0  0  0  0  0999 V2000
    7.1962    2.7500    0.0000 Cl  0  0  0  0  0  0  0  0  0  0  0  0
    7.1962    4.7500    0.0000 Cl  0  0  0  0  0  0  0  0  0  0  0  0
    2.8660   -4.7500    0.0000 O   0  0  0  0  0  0  0  0  0  0  0  0
    4.5981    1.2500    0.0000 O   0  0  0  0  0  0  0  0  0  0  0  0
    2.8660   -2.7500    0.0000 N   0  0  0  0  0  0  0  0  0  0  0  0
    2.8660    1.2500    0.0000 N   0  0  0  0  0  0  0  0  0  0  0  0
    3.7320    2.7500    0.0000 N   0  0  0  0  0  0  0  0  0  0  0  0
    3.7320   -3.2500    0.0000 C   0  0  0  0  0  0  0  0  0  0  0  0
    2.0000   -3.2500    0.0000 C   0  0  0  0  0  0  0  0  0  0  0  0
    3.7320   -4.2500    0.0000 C   0  0  0  0  0  0  0  0  0  0  0  0
    2.0000   -4.2500    0.0000 C   0  0  0  0  0  0  0  0  0  0  0  0
    2.8660   -1.7500    0.0000 C   0  0  0  0  0  0  0  0  0  0  0  0
    3.7320   -1.2500    0.0000 C   0  0  0  0  0  0  0  0  0  0  0  0
    2.0000   -1.2500    0.0000 C   0  0  0  0  0  0  0  0  0  0  0  0
    2.8660    0.2500    0.0000 C   0  0  0  0  0  0  0  0  0  0  0  0
    3.7320   -0.2500    0.0000 C   0  0  0  0  0  0  0  0  0  0  0  0
    2.0000   -0.2500    0.0000 C   0  0  0  0  0  0  0  0  0  0  0  0
    3.7320    1.7500    0.0000 C   0  0  0  0  0  0  0  0  0  0  0  0
    4.5981    3.2500    0.0000 C   0  0  0  0  0  0  0  0  0  0  0  0
    5.4641    2.7500    0.0000 C   0  0  0  0  0  0  0  0  0  0  0  0
    4.5981    4.2500    0.0000 C   0  0  0  0  0  0  0  0  0  0  0  0
    6.3301    3.2500    0.0000 C   0  0  0  0  0  0  0  0  0  0  0  0
    5.4641    4.7500    0.0000 C   0  0  0  0  0  0  0  0  0  0  0  0
    6.3301    4.2500    0.0000 C   0  0  0  0  0  0  0  0  0  0  0  0
    4.3426   -3.3577    0.0000 H   0  0  0  0  0  0  0  0  0  0  0  0
    3.9441   -2.6674    0.0000 H   0  0  0  0  0  0  0  0  0  0  0  0
    1.7880   -2.6674    0.0000 H   0  0  0  0  0  0  0  0  0  0  0  0
    1.3894   -3.3577    0.0000 H   0  0  0  0  0  0  0  0  0  0  0  0
    3.9441   -4.8326    0.0000 H   0  0  0  0  0  0  0  0  0  0  0  0
    4.3426   -4.1423    0.0000 H   0  0  0  0  0  0  0  0  0  0  0  0
    1.3894   -4.1423    0.0000 H   0  0  0  0  0  0  0  0  0  0  0  0
    1.7880   -4.8326    0.0000 H   0  0  0  0  0  0  0  0  0  0  0  0
    4.2690   -1.5600    0.0000 H   0  0  0  0  0  0  0  0  0  0  0  0
    1.4631   -1.5600    0.0000 H   0  0  0  0  0  0  0  0  0  0  0  0
    4.2690    0.0600    0.0000 H   0  0  0  0  0  0  0  0  0  0  0  0
    1.4631    0.0600    0.0000 H   0  0  0  0  0  0  0  0  0  0  0  0
    2.3291    1.5600    0.0000 H   0  0  0  0  0  0  0  0  0  0  0  0
    3.1951    3.0600    0.0000 H   0  0  0  0  0  0  0  0  0  0  0  0
    5.4641    2.1300    0.0000 H   0  0  0  0  0  0  0  0  0  0  0  0
    4.0611    4.5600    0.0000 H   0  0  0  0  0  0  0  0  0  0  0  0
    5.4641    5.3700    0.0000 H   0  0  0  0  0  0  0  0  0  0  0  0
  1 22  1  0  0  0  0
  2 24  1  0  0  0  0
  3 10  1  0  0  0  0
  3 11  1  0  0  0  0
  4 18  2  0  0  0  0
  5  8  1  0  0  0  0
  5  9  1  0  0  0  0
  5 12  1  0  0  0  0
  6 15  1  0  0  0  0
  6 18  1  0  0  0  0
  6 37  1  0  0  0  0
  7 18  1  0  0  0  0
  7 19  1  0  0  0  0
  7 38  1  0  0  0  0
  8 10  1  0  0  0  0
  8 25  1  0  0  0  0
  8 26  1  0  0  0  0
  9 11  1  0  0  0  0
  9 27  1  0  0  0  0
  9 28  1  0  0  0  0
 10 29  1  0  0  0  0
 10 30  1  0  0  0  0
 11 31  1  0  0  0  0
 11 32  1  0  0  0  0
 12 13  2  0  0  0  0
 12 14  1  0  0  0  0
 13 16  1  0  0  0  0
 13 33  1  0  0  0  0
 14 17  2  0  0  0  0
 14 34  1  0  0  0  0
 15 16  2  0  0  0  0
 15 17  1  0  0  0  0
 16 35  1  0  0  0  0
 17 36  1  0  0  0  0
 19 20  2  0  0  0  0
 19 21  1  0  0  0  0
 20 22  1  0  0  0  0
 20 39  1  0  0  0  0
 21 23  2  0  0  0  0
 21 40  1  0  0  0  0
 22 24  2  0  0  0  0
 23 24  1  0  0  0  0
 23 41  1  0  0  0  0
M  END
> <PUBCHEM_COMPOUND_CID>
1188017

> <PUBCHEM_COMPOUND_CANONICALIZED>
1

> <PUBCHEM_CACTVS_COMPLEXITY>
413

> <PUBCHEM_CACTVS_HBOND_ACCEPTOR>
3

> <PUBCHEM_CACTVS_HBOND_DONOR>
2

> <PUBCHEM_CACTVS_ROTATABLE_BOND>
3

> <PUBCHEM_CACTVS_SUBSKEYS>
AAADceB7MAAGAAAAAAAAAAAAAAAAAAAAAAA8YIAAAAAAAAABQAAAHgIQAAAACArhkCYxwIPABACIACRCUACCAAAhBwAIikAIZoiKICLBk5GHIAholALYyCcQAAAAAADAAAIAAAQAAYAABAAACAAAAAAAAA==

> <PUBCHEM_IUPAC_OPENEYE_NAME>
1-(3,4-dichlorophenyl)-3-(4-morpholinophenyl)urea

> <PUBCHEM_IUPAC_CAS_NAME>
1-(3,4-dichlorophenyl)-3-[4-(4-morpholinyl)phenyl]urea

> <PUBCHEM_IUPAC_NAME>
1-(3,4-dichlorophenyl)-3-(4-morpholin-4-ylphenyl)urea

> <PUBCHEM_IUPAC_SYSTEMATIC_NAME>
1-(3,4-dichlorophenyl)-3-(4-morpholin-4-ylphenyl)urea

> <PUBCHEM_IUPAC_TRADITIONAL_NAME>
1-(3,4-dichlorophenyl)-3-(4-morpholinophenyl)urea

> <PUBCHEM_IUPAC_INCHI>
InChI=1S/C17H17Cl2N3O2/c18-15-6-3-13(11-16(15)19)21-17(23)20-12-1-4-14(5-2-12)22-7-9-24-10-8-22/h1-6,11H,7-10H2,(H2,20,21,23)

> <PUBCHEM_IUPAC_INCHIKEY>
QMPITUICLNYWSH-UHFFFAOYSA-N

> <PUBCHEM_XLOGP3>
4.4

> <PUBCHEM_EXACT_MASS>
365.07

> <PUBCHEM_MOLECULAR_FORMULA>
C17H17Cl2N3O2

> <PUBCHEM_MOLECULAR_WEIGHT>
366.242

> <PUBCHEM_OPENEYE_CAN_SMILES>
C1COCCN1C2=CC=C(C=C2)NC(=O)NC3=CC(=C(C=C3)Cl)Cl

> <PUBCHEM_OPENEYE_ISO_SMILES>
C1COCCN1C2=CC=C(C=C2)NC(=O)NC3=CC(=C(C=C3)Cl)Cl

> <PUBCHEM_CACTVS_TPSA>
53.6

> <PUBCHEM_MONOISOTOPIC_WEIGHT>
365.07

> <PUBCHEM_TOTAL_CHARGE>
0

> <PUBCHEM_HEAVY_ATOM_COUNT>
24

> <PUBCHEM_ATOM_DEF_STEREO_COUNT>
0

> <PUBCHEM_ATOM_UDEF_STEREO_COUNT>
0

> <PUBCHEM_BOND_DEF_STEREO_COUNT>
0

> <PUBCHEM_BOND_UDEF_STEREO_COUNT>
0

> <PUBCHEM_ISOTOPIC_ATOM_COUNT>
0

> <PUBCHEM_COMPONENT_COUNT>
1

> <PUBCHEM_CACTVS_TAUTO_COUNT>
3

> <PUBCHEM_COORDINATE_TYPE>
1
5
255

> <PUBCHEM_BONDANNOTATIONS>
12  13  8
12  14  8
13  16  8
14  17  8
15  16  8
15  17  8
19  20  8
19  21  8
20  22  8
21  23  8
22  24  8
23  24  8

$$$$
5329102
  -OEChem-11021604552D

 56 58  0     0  0  0  0  0  0999 V2000
    2.0000   -1.4372    0.0000 F   0  0  0  0  0  0  0  0  0  0  0  0
    8.5992    2.0245    0.0000 O   0  0  0  0  0  0  0  0  0  0  0  0
    7.1279   -2.4372    0.0000 O   0  0  0  0  0  0  0  0  0  0  0  0
   12.2029    2.1376    0.0000 N   0  0  0  0  0  0  0  0  0  0  0  0
    7.5754   -1.1461    0.0000 N   0  0  0  0  0  0  0  0  0  0  0  0
    9.8843    0.8633    0.0000 N   0  0  0  0  0  0  0  0  0  0  0  0
    5.5443   -3.2419    0.0000 N   0  0  0  0  0  0  0  0  0  0  0  0
   11.5325    1.3957    0.0000 C   0  0  0  0  0  0  0  0  0  0  0  0
    8.2361    0.3309    0.0000 C   0  0  0  0  0  0  0  0  0  0  0  0
    7.2418    0.4371    0.0000 C   0  0  0  0  0  0  0  0  0  0  0  0
    6.8335   -0.4757    0.0000 C   0  0  0  0  0  0  0  0  0  0  0  0
   10.5547    1.6053    0.0000 C   0  0  0  0  0  0  0  0  0  0  0  0
    8.4423   -0.6476    0.0000 C   0  0  0  0  0  0  0  0  0  0  0  0
   13.1807    1.9280    0.0000 C   0  0  0  0  0  0  0  0  0  0  0  0
   11.8956    3.0892    0.0000 C   0  0  0  0  0  0  0  0  0  0  0  0
    8.9065    1.0729    0.0000 C   0  0  0  0  0  0  0  0  0  0  0  0
    5.5443   -1.6324    0.0000 C   0  0  0  0  0  0  0  0  0  0  0  0
    5.8550   -0.6819    0.0000 C   0  0  0  0  0  0  0  0  0  0  0  0
    4.5981   -1.9372    0.0000 C   0  0  0  0  0  0  0  0  0  0  0  0
    6.7433    1.3040    0.0000 C   0  0  0  0  0  0  0  0  0  0  0  0
    4.5981   -2.9372    0.0000 C   0  0  0  0  0  0  0  0  0  0  0  0
    9.3552   -1.0559    0.0000 C   0  0  0  0  0  0  0  0  0  0  0  0
    6.1279   -2.4372    0.0000 C   0  0  0  0  0  0  0  0  0  0  0  0
   13.8511    2.6700    0.0000 C   0  0  0  0  0  0  0  0  0  0  0  0
   12.5660    3.8312    0.0000 C   0  0  0  0  0  0  0  0  0  0  0  0
    3.7320   -1.4372    0.0000 C   0  0  0  0  0  0  0  0  0  0  0  0
    3.7320   -3.4372    0.0000 C   0  0  0  0  0  0  0  0  0  0  0  0
    2.8660   -1.9372    0.0000 C   0  0  0  0  0  0  0  0  0  0  0  0
    2.8660   -2.9372    0.0000 C   0  0  0  0  0  0  0  0  0  0  0  0
   11.2993    0.8212    0.0000 H   0  0  0  0  0  0  0  0  0  0  0  0
   12.0577    1.0662    0.0000 H   0  0  0  0  0  0  0  0  0  0  0  0
   10.7880    2.1797    0.0000 H   0  0  0  0  0  0  0  0  0  0  0  0
   10.0295    1.9347    0.0000 H   0  0  0  0  0  0  0  0  0  0  0  0
    7.5096   -1.7626    0.0000 H   0  0  0  0  0  0  0  0  0  0  0  0
   12.9475    1.3536    0.0000 H   0  0  0  0  0  0  0  0  0  0  0  0
   13.7059    1.5986    0.0000 H   0  0  0  0  0  0  0  0  0  0  0  0
   11.5147    3.5785    0.0000 H   0  0  0  0  0  0  0  0  0  0  0  0
   11.3476    2.7991    0.0000 H   0  0  0  0  0  0  0  0  0  0  0  0
    5.4409   -0.2204    0.0000 H   0  0  0  0  0  0  0  0  0  0  0  0
   10.0749    0.2733    0.0000 H   0  0  0  0  0  0  0  0  0  0  0  0
    7.2808    1.6131    0.0000 H   0  0  0  0  0  0  0  0  0  0  0  0
    6.4342    1.8415    0.0000 H   0  0  0  0  0  0  0  0  0  0  0  0
    6.2058    0.9950    0.0000 H   0  0  0  0  0  0  0  0  0  0  0  0
    9.1020   -1.6219    0.0000 H   0  0  0  0  0  0  0  0  0  0  0  0
    9.9211   -1.3091    0.0000 H   0  0  0  0  0  0  0  0  0  0  0  0
    9.6083   -0.4900    0.0000 H   0  0  0  0  0  0  0  0  0  0  0  0
   13.0260    3.4156    0.0000 H   0  0  0  0  0  0  0  0  0  0  0  0
   12.9816    4.2912    0.0000 H   0  0  0  0  0  0  0  0  0  0  0  0
   12.1060    4.2469    0.0000 H   0  0  0  0  0  0  0  0  0  0  0  0
   14.3112    2.2544    0.0000 H   0  0  0  0  0  0  0  0  0  0  0  0
   14.2668    3.1301    0.0000 H   0  0  0  0  0  0  0  0  0  0  0  0
   13.3911    3.0857    0.0000 H   0  0  0  0  0  0  0  0  0  0  0  0
    5.7369   -3.8312    0.0000 H   0  0  0  0  0  0  0  0  0  0  0  0
    3.7320   -0.8172    0.0000 H   0  0  0  0  0  0  0  0  0  0  0  0
    3.7320   -4.0572    0.0000 H   0  0  0  0  0  0  0  0  0  0  0  0
    2.3291   -3.2472    0.0000 H   0  0  0  0  0  0  0  0  0  0  0  0
  1 28  1  0  0  0  0
  2 16  2  0  0  0  0
  3 23  2  0  0  0  0
  4  8  1  0  0  0  0
  4 14  1  0  0  0  0
  4 15  1  0  0  0  0
  5 11  1  0  0  0  0
  5 13  1  0  0  0  0
  5 34  1  0  0  0  0
  6 12  1  0  0  0  0
  6 16  1  0  0  0  0
  6 40  1  0  0  0  0
  7 21  1  0  0  0  0
  7 23  1  0  0  0  0
  7 53  1  0  0  0  0
  8 12  1  0  0  0  0
  8 30  1  0  0  0  0
  8 31  1  0  0  0  0
  9 10  1  0  0  0  0
  9 13  2  0  0  0  0
  9 16  1  0  0  0  0
 10 11  2  0  0  0  0
 10 20  1  0  0  0  0
 11 18  1  0  0  0  0
 12 32  1  0  0  0  0
 12 33  1  0  0  0  0
 13 22  1  0  0  0  0
 14 24  1  0  0  0  0
 14 35  1  0  0  0  0
 14 36  1  0  0  0  0
 15 25  1  0  0  0  0
 15 37  1  0  0  0  0
 15 38  1  0  0  0  0
 17 18  2  0  0  0  0
 17 19  1  0  0  0  0
 17 23  1  0  0  0  0
 18 39  1  0  0  0  0
 19 21  2  0  0  0  0
 19 26  1  0  0  0  0
 20 41  1  0  0  0  0
 20 42  1  0  0  0  0
 20 43  1  0  0  0  0
 21 27  1  0  0  0  0
 22 44  1  0  0  0  0
 22 45  1  0  0  0  0
 22 46  1  0  0  0  0
 24 50  1  0  0  0  0
 24 51  1  0  0  0  0
 24 52  1  0  0  0  0
 25 47  1  0  0  0  0
 25 48  1  0  0  0  0
 25 49  1  0  0  0  0
 26 28  2  0  0  0  0
 26 54  1  0  0  0  0
 27 29  2  0  0  0  0
 27 55  1  0  0  0  0
 28 29  1  0  0  0  0
 29 56  1  0  0  0  0
M  END
> <PUBCHEM_COMPOUND_CID>
5329102

> <PUBCHEM_COMPOUND_CANONICALIZED>
1

> <PUBCHEM_CACTVS_COMPLEXITY>
636

> <PUBCHEM_CACTVS_HBOND_ACCEPTOR>
4

> <PUBCHEM_CACTVS_HBOND_DONOR>
3

> <PUBCHEM_CACTVS_ROTATABLE_BOND>
7

> <PUBCHEM_CACTVS_SUBSKEYS>
AAADceB7sQAAAAAAAAAAAAAAAAAAAWLAAAAwAAAAAAAAAFgBwAAAHwAQAAAADAjBngwywJPJkACoAyVyVACCgCAlAiAImaE4ZNgIYHrA1ZGUIYhglgDIyccciICOgAAAAAACAAAAAAAAAAQAAAAAAAAAAA==

> <PUBCHEM_IUPAC_OPENEYE_NAME>
N-[2-(diethylamino)ethyl]-5-[(Z)-(5-fluoro-2-oxo-indolin-3-ylidene)methyl]-2,4-dimethyl-1H-pyrrole-3-carboxamide

> <PUBCHEM_IUPAC_CAS_NAME>
N-[2-(diethylamino)ethyl]-5-[(Z)-(5-fluoro-2-oxo-1H-indol-3-ylidene)methyl]-2,4-dimethyl-1H-pyrrole-3-carboxamide

> <PUBCHEM_IUPAC_NAME>
N-[2-(diethylamino)ethyl]-5-[(Z)-(5-fluoro-2-oxo-1H-indol-3-ylidene)methyl]-2,4-dimethyl-1H-pyrrole-3-carboxamide

> <PUBCHEM_IUPAC_SYSTEMATIC_NAME>
N-[2-(diethylamino)ethyl]-5-[(Z)-(5-fluoranyl-2-oxidanylidene-1H-indol-3-ylidene)methyl]-2,4-dimethyl-1H-pyrrole-3-carboxamide

> <PUBCHEM_IUPAC_TRADITIONAL_NAME>
N-[2-(diethylamino)ethyl]-5-[(Z)-(5-fluoro-2-keto-indolin-3-ylidene)methyl]-2,4-dimethyl-1H-pyrrole-3-carboxamide

> <PUBCHEM_IUPAC_INCHI>
InChI=1S/C22H27FN4O2/c1-5-27(6-2)10-9-24-22(29)20-13(3)19(25-14(20)4)12-17-16-11-15(23)7-8-18(16)26-21(17)28/h7-8,11-12,25H,5-6,9-10H2,1-4H3,(H,24,29)(H,26,28)/b17-12-

> <PUBCHEM_IUPAC_INCHIKEY>
WINHZLLDWRZWRT-ATVHPVEESA-N

> <PUBCHEM_XLOGP3_AA>
2.6

> <PUBCHEM_EXACT_MASS>
398.212

> <PUBCHEM_MOLECULAR_FORMULA>
C22H27FN4O2

> <PUBCHEM_MOLECULAR_WEIGHT>
398.482

> <PUBCHEM_OPENEYE_CAN_SMILES>
CCN(CC)CCNC(=O)C1=C(NC(=C1C)C=C2C3=C(C=CC(=C3)F)NC2=O)C

> <PUBCHEM_OPENEYE_ISO_SMILES>
CCN(CC)CCNC(=O)C1=C(NC(=C1C)/C=C\2/C3=C(C=CC(=C3)F)NC2=O)C

> <PUBCHEM_CACTVS_TPSA>
77.2

> <PUBCHEM_MONOISOTOPIC_WEIGHT>
398.212

> <PUBCHEM_TOTAL_CHARGE>
0

> <PUBCHEM_HEAVY_ATOM_COUNT>
29

> <PUBCHEM_ATOM_DEF_STEREO_COUNT>
0

> <PUBCHEM_ATOM_UDEF_STEREO_COUNT>
0

> <PUBCHEM_BOND_DEF_STEREO_COUNT>
1

> <PUBCHEM_BOND_UDEF_STEREO_COUNT>
0

> <PUBCHEM_ISOTOPIC_ATOM_COUNT>
0

> <PUBCHEM_COMPONENT_COUNT>
1

> <PUBCHEM_CACTVS_TAUTO_COUNT>
390

> <PUBCHEM_COORDINATE_TYPE>
1
5
255

> <PUBCHEM_BONDANNOTATIONS>
10  11  8
19  21  8
19  26  8
21  27  8
26  28  8
27  29  8
28  29  8
5  11  8
5  13  8
9  10  8
9  13  8

$$$$
9549298
  -OEChem-11021604552D

 64 69  0     0  0  0  0  0  0999 V2000
    4.6783    2.0847    0.0000 S   0  0  0  0  0  0  0  0  0  0  0  0
   12.7619    2.0234    0.0000 O   0  0  0  0  0  0  0  0  0  0  0  0
   14.2619   -2.3067    0.0000 N   0  0  0  0  0  0  0  0  0  0  0  0
   12.7619    0.2913    0.0000 N   0  0  0  0  0  0  0  0  0  0  0  0
    8.2619    1.1574    0.0000 N   0  0  0  0  0  0  0  0  0  0  0  0
    6.7619    2.0234    0.0000 N   0  0  0  0  0  0  0  0  0  0  0  0
    8.2619    2.8894    0.0000 N   0  0  0  0  0  0  0  0  0  0  0  0
   13.7619   -1.4407    0.0000 C   0  0  0  0  0  0  0  0  0  0  0  0
   14.2619   -0.5747    0.0000 C   0  0  0  0  0  0  0  0  0  0  0  0
   12.7619   -1.4407    0.0000 C   0  0  0  0  0  0  0  0  0  0  0  0
   13.8551   -3.2203    0.0000 C   0  0  0  0  0  0  0  0  0  0  0  0
   15.2564   -2.4113    0.0000 C   0  0  0  0  0  0  0  0  0  0  0  0
   14.5983   -3.8894    0.0000 C   0  0  0  0  0  0  0  0  0  0  0  0
   15.4643   -3.3894    0.0000 C   0  0  0  0  0  0  0  0  0  0  0  0
   12.2619   -0.5747    0.0000 C   0  0  0  0  0  0  0  0  0  0  0  0
   13.7619    0.2913    0.0000 C   0  0  0  0  0  0  0  0  0  0  0  0
   12.2619    1.1574    0.0000 C   0  0  0  0  0  0  0  0  0  0  0  0
   11.2619    1.1574    0.0000 C   0  0  0  0  0  0  0  0  0  0  0  0
   10.7619    0.2913    0.0000 C   0  0  0  0  0  0  0  0  0  0  0  0
   10.7619    2.0234    0.0000 C   0  0  0  0  0  0  0  0  0  0  0  0
    9.7619    0.2913    0.0000 C   0  0  0  0  0  0  0  0  0  0  0  0
    9.7619    2.0234    0.0000 C   0  0  0  0  0  0  0  0  0  0  0  0
    9.2619    1.1574    0.0000 C   0  0  0  0  0  0  0  0  0  0  0  0
    7.7619    2.0234    0.0000 C   0  0  0  0  0  0  0  0  0  0  0  0
    6.2619    2.8894    0.0000 C   0  0  0  0  0  0  0  0  0  0  0  0
    5.2619    2.8894    0.0000 C   0  0  0  0  0  0  0  0  0  0  0  0
    3.7320    3.3894    0.0000 C   0  0  0  0  0  0  0  0  0  0  0  0
    3.7320    2.3894    0.0000 C   0  0  0  0  0  0  0  0  0  0  0  0
    4.6783    3.6942    0.0000 C   0  0  0  0  0  0  0  0  0  0  0  0
    6.7619    3.7554    0.0000 C   0  0  0  0  0  0  0  0  0  0  0  0
    2.8660    3.8894    0.0000 C   0  0  0  0  0  0  0  0  0  0  0  0
    2.8660    1.8894    0.0000 C   0  0  0  0  0  0  0  0  0  0  0  0
    7.7619    3.7554    0.0000 C   0  0  0  0  0  0  0  0  0  0  0  0
    2.0000    3.3894    0.0000 C   0  0  0  0  0  0  0  0  0  0  0  0
    2.0000    2.3894    0.0000 C   0  0  0  0  0  0  0  0  0  0  0  0
   13.4519   -1.9776    0.0000 H   0  0  0  0  0  0  0  0  0  0  0  0
   14.7368   -0.9732    0.0000 H   0  0  0  0  0  0  0  0  0  0  0  0
   14.7368   -0.1762    0.0000 H   0  0  0  0  0  0  0  0  0  0  0  0
   12.1793   -1.6528    0.0000 H   0  0  0  0  0  0  0  0  0  0  0  0
   12.8695   -2.0513    0.0000 H   0  0  0  0  0  0  0  0  0  0  0  0
   15.8730   -2.3465    0.0000 H   0  0  0  0  0  0  0  0  0  0  0  0
   13.3182   -2.9103    0.0000 H   0  0  0  0  0  0  0  0  0  0  0  0
   13.4907   -3.7219    0.0000 H   0  0  0  0  0  0  0  0  0  0  0  0
   15.2564   -1.7913    0.0000 H   0  0  0  0  0  0  0  0  0  0  0  0
   14.1375   -4.3043    0.0000 H   0  0  0  0  0  0  0  0  0  0  0  0
   14.9627   -4.3910    0.0000 H   0  0  0  0  0  0  0  0  0  0  0  0
   15.7165   -3.9558    0.0000 H   0  0  0  0  0  0  0  0  0  0  0  0
   16.0540   -3.1978    0.0000 H   0  0  0  0  0  0  0  0  0  0  0  0
   11.7869   -0.1762    0.0000 H   0  0  0  0  0  0  0  0  0  0  0  0
   11.7869   -0.9732    0.0000 H   0  0  0  0  0  0  0  0  0  0  0  0
   14.3445    0.5034    0.0000 H   0  0  0  0  0  0  0  0  0  0  0  0
   13.6542    0.9019    0.0000 H   0  0  0  0  0  0  0  0  0  0  0  0
   11.0719   -0.2456    0.0000 H   0  0  0  0  0  0  0  0  0  0  0  0
   11.0719    2.5603    0.0000 H   0  0  0  0  0  0  0  0  0  0  0  0
    9.4519   -0.2456    0.0000 H   0  0  0  0  0  0  0  0  0  0  0  0
    9.4519    2.5603    0.0000 H   0  0  0  0  0  0  0  0  0  0  0  0
    7.9519    0.6204    0.0000 H   0  0  0  0  0  0  0  0  0  0  0  0
    4.8709    4.2835    0.0000 H   0  0  0  0  0  0  0  0  0  0  0  0
    6.4519    4.2924    0.0000 H   0  0  0  0  0  0  0  0  0  0  0  0
    2.8660    4.5094    0.0000 H   0  0  0  0  0  0  0  0  0  0  0  0
    2.8660    1.2694    0.0000 H   0  0  0  0  0  0  0  0  0  0  0  0
    8.0719    4.2924    0.0000 H   0  0  0  0  0  0  0  0  0  0  0  0
    1.4631    3.6994    0.0000 H   0  0  0  0  0  0  0  0  0  0  0  0
    1.4631    2.0794    0.0000 H   0  0  0  0  0  0  0  0  0  0  0  0
  1 26  1  0  0  0  0
  1 28  1  0  0  0  0
  2 17  2  0  0  0  0
  3  8  1  0  0  0  0
  3 11  1  0  0  0  0
  3 12  1  0  0  0  0
  4 15  1  0  0  0  0
  4 16  1  0  0  0  0
  4 17  1  0  0  0  0
  5 23  1  0  0  0  0
  5 24  1  0  0  0  0
  5 57  1  0  0  0  0
  6 24  1  0  0  0  0
  6 25  2  0  0  0  0
  7 24  2  0  0  0  0
  7 33  1  0  0  0  0
  8  9  1  0  0  0  0
  8 10  1  0  0  0  0
  8 36  1  0  0  0  0
  9 16  1  0  0  0  0
  9 37  1  0  0  0  0
  9 38  1  0  0  0  0
 10 15  1  0  0  0  0
 10 39  1  0  0  0  0
 10 40  1  0  0  0  0
 11 13  1  0  0  0  0
 11 42  1  0  0  0  0
 11 43  1  0  0  0  0
 12 14  1  0  0  0  0
 12 41  1  0  0  0  0
 12 44  1  0  0  0  0
 13 14  1  0  0  0  0
 13 45  1  0  0  0  0
 13 46  1  0  0  0  0
 14 47  1  0  0  0  0
 14 48  1  0  0  0  0
 15 49  1  0  0  0  0
 15 50  1  0  0  0  0
 16 51  1  0  0  0  0
 16 52  1  0  0  0  0
 17 18  1  0  0  0  0
 18 19  2  0  0  0  0
 18 20  1  0  0  0  0
 19 21  1  0  0  0  0
 19 53  1  0  0  0  0
 20 22  2  0  0  0  0
 20 54  1  0  0  0  0
 21 23  2  0  0  0  0
 21 55  1  0  0  0  0
 22 23  1  0  0  0  0
 22 56  1  0  0  0  0
 25 26  1  0  0  0  0
 25 30  1  0  0  0  0
 26 29  2  0  0  0  0
 27 28  1  0  0  0  0
 27 29  1  0  0  0  0
 27 31  2  0  0  0  0
 28 32  2  0  0  0  0
 29 58  1  0  0  0  0
 30 33  2  0  0  0  0
 30 59  1  0  0  0  0
 31 34  1  0  0  0  0
 31 60  1  0  0  0  0
 32 35  1  0  0  0  0
 32 61  1  0  0  0  0
 33 62  1  0  0  0  0
 34 35  2  0  0  0  0
 34 63  1  0  0  0  0
 35 64  1  0  0  0  0
M  END
> <PUBCHEM_COMPOUND_CID>
9549298

> <PUBCHEM_COMPOUND_CANONICALIZED>
1

> <PUBCHEM_CACTVS_COMPLEXITY>
702

> <PUBCHEM_CACTVS_HBOND_ACCEPTOR>
6

> <PUBCHEM_CACTVS_HBOND_DONOR>
1

> <PUBCHEM_CACTVS_ROTATABLE_BOND>
5

> <PUBCHEM_CACTVS_SUBSKEYS>
AAADceB7oABAAAAAAAAAAAAAAAAAAWJAAAA8eIEAAAAAAEgB/AAAHgQQAAAADCjB3gQ90dfIEAisAzV3dACDgKk1CrBJ2Dk4ZNiIKLLg3dGEJQholgLoyacYicCeCAAAAAAEAAAQAAAAAAgAAAAAAAAAAA==

> <PUBCHEM_IUPAC_OPENEYE_NAME>
[4-[[4-(benzothiophen-2-yl)pyrimidin-2-yl]amino]phenyl]-(4-pyrrolidin-1-yl-1-piperidyl)methanone

> <PUBCHEM_IUPAC_CAS_NAME>
[4-[[4-(1-benzothiophen-2-yl)-2-pyrimidinyl]amino]phenyl]-[4-(1-pyrrolidinyl)-1-piperidinyl]methanone

> <PUBCHEM_IUPAC_NAME>
[4-[[4-(1-benzothiophen-2-yl)pyrimidin-2-yl]amino]phenyl]-(4-pyrrolidin-1-ylpiperidin-1-yl)methanone

> <PUBCHEM_IUPAC_SYSTEMATIC_NAME>
[4-[[4-(1-benzothiophen-2-yl)pyrimidin-2-yl]amino]phenyl]-(4-pyrrolidin-1-ylpiperidin-1-yl)methanone

> <PUBCHEM_IUPAC_TRADITIONAL_NAME>
[4-[[4-(benzothiophen-2-yl)pyrimidin-2-yl]amino]phenyl]-(4-pyrrolidinopiperidino)methanone

> <PUBCHEM_IUPAC_INCHI>
InChI=1S/C28H29N5OS/c34-27(33-17-12-23(13-18-33)32-15-3-4-16-32)20-7-9-22(10-8-20)30-28-29-14-11-24(31-28)26-19-21-5-1-2-6-25(21)35-26/h1-2,5-11,14,19,23H,3-4,12-13,15-18H2,(H,29,30,31)

> <PUBCHEM_IUPAC_INCHIKEY>
BWZJBXAPRCVCKQ-UHFFFAOYSA-N

> <PUBCHEM_XLOGP3_AA>
5.3

> <PUBCHEM_EXACT_MASS>
483.209

> <PUBCHEM_MOLECULAR_FORMULA>
C28H29N5OS

> <PUBCHEM_MOLECULAR_WEIGHT>
483.634

> <PUBCHEM_OPENEYE_CAN_SMILES>
C1CCN(C1)C2CCN(CC2)C(=O)C3=CC=C(C=C3)NC4=NC=CC(=N4)C5=CC6=CC=CC=C6S5

> <PUBCHEM_OPENEYE_ISO_SMILES>
C1CCN(C1)C2CCN(CC2)C(=O)C3=CC=C(C=C3)NC4=NC=CC(=N4)C5=CC6=CC=CC=C6S5

> <PUBCHEM_CACTVS_TPSA>
89.6

> <PUBCHEM_MONOISOTOPIC_WEIGHT>
483.209

> <PUBCHEM_TOTAL_CHARGE>
0

> <PUBCHEM_HEAVY_ATOM_COUNT>
35

> <PUBCHEM_ATOM_DEF_STEREO_COUNT>
0

> <PUBCHEM_ATOM_UDEF_STEREO_COUNT>
0

> <PUBCHEM_BOND_DEF_STEREO_COUNT>
0

> <PUBCHEM_BOND_UDEF_STEREO_COUNT>
0

> <PUBCHEM_ISOTOPIC_ATOM_COUNT>
0

> <PUBCHEM_COMPONENT_COUNT>
1

> <PUBCHEM_CACTVS_TAUTO_COUNT>
5

> <PUBCHEM_COORDINATE_TYPE>
1
5
255

> <PUBCHEM_BONDANNOTATIONS>
1  26  8
1  28  8
18  19  8
18  20  8
19  21  8
20  22  8
21  23  8
22  23  8
25  30  8
26  29  8
27  28  8
27  29  8
27  31  8
28  32  8
30  33  8
31  34  8
32  35  8
34  35  8
6  24  8
6  25  8
7  24  8
7  33  8

$$$$
5287844
  -OEChem-11021604552D

 32 35  0     0  0  0  0  0  0999 V2000
    2.0000   -2.8085    0.0000 Br  0  0  0  0  0  0  0  0  0  0  0  0
    7.1279   -1.8085    0.0000 O   0  0  0  0  0  0  0  0  0  0  0  0
    3.7714    1.6175    0.0000 O   0  0  0  0  0  0  0  0  0  0  0  0
    5.5443   -2.6132    0.0000 N   0  0  0  0  0  0  0  0  0  0  0  0
    6.8012    0.2515    0.0000 N   0  0  0  0  0  0  0  0  0  0  0  0
    4.2714    0.7515    0.0000 N   0  0  0  0  0  0  0  0  0  0  0  0
    5.5443   -1.0038    0.0000 C   0  0  0  0  0  0  0  0  0  0  0  0
    4.5981   -1.3085    0.0000 C   0  0  0  0  0  0  0  0  0  0  0  0
    5.8550   -0.0533    0.0000 C   0  0  0  0  0  0  0  0  0  0  0  0
    4.5981   -2.3085    0.0000 C   0  0  0  0  0  0  0  0  0  0  0  0
    5.2714    0.7515    0.0000 C   0  0  0  0  0  0  0  0  0  0  0  0
    5.8550    1.5562    0.0000 C   0  0  0  0  0  0  0  0  0  0  0  0
    6.1279   -1.8085    0.0000 C   0  0  0  0  0  0  0  0  0  0  0  0
    6.8055    1.2456    0.0000 C   0  0  0  0  0  0  0  0  0  0  0  0
    3.7320   -0.8085    0.0000 C   0  0  0  0  0  0  0  0  0  0  0  0
    3.7320   -2.8085    0.0000 C   0  0  0  0  0  0  0  0  0  0  0  0
    5.6487    2.5347    0.0000 C   0  0  0  0  0  0  0  0  0  0  0  0
    7.5498    1.9134    0.0000 C   0  0  0  0  0  0  0  0  0  0  0  0
    2.8660   -1.3085    0.0000 C   0  0  0  0  0  0  0  0  0  0  0  0
    2.8660   -2.3085    0.0000 C   0  0  0  0  0  0  0  0  0  0  0  0
    6.3930    3.2026    0.0000 C   0  0  0  0  0  0  0  0  0  0  0  0
    7.3436    2.8919    0.0000 C   0  0  0  0  0  0  0  0  0  0  0  0
    5.7369   -3.2026    0.0000 H   0  0  0  0  0  0  0  0  0  0  0  0
    3.7320   -0.1885    0.0000 H   0  0  0  0  0  0  0  0  0  0  0  0
    3.7320   -3.4285    0.0000 H   0  0  0  0  0  0  0  0  0  0  0  0
    5.0594    2.7273    0.0000 H   0  0  0  0  0  0  0  0  0  0  0  0
    8.1391    1.7208    0.0000 H   0  0  0  0  0  0  0  0  0  0  0  0
    2.3291   -0.9985    0.0000 H   0  0  0  0  0  0  0  0  0  0  0  0
    3.9614    0.2145    0.0000 H   0  0  0  0  0  0  0  0  0  0  0  0
    6.2652    3.8092    0.0000 H   0  0  0  0  0  0  0  0  0  0  0  0
    7.8050    3.3060    0.0000 H   0  0  0  0  0  0  0  0  0  0  0  0
    3.1514    1.6175    0.0000 H   0  0  0  0  0  0  0  0  0  0  0  0
  1 20  1  0  0  0  0
  2 13  2  0  0  0  0
  3  6  1  0  0  0  0
  3 32  1  0  0  0  0
  4 10  1  0  0  0  0
  4 13  1  0  0  0  0
  4 23  1  0  0  0  0
  5  9  1  0  0  0  0
  5 14  2  0  0  0  0
  6 11  1  0  0  0  0
  6 29  1  0  0  0  0
  7  8  1  0  0  0  0
  7  9  2  0  0  0  0
  7 13  1  0  0  0  0
  8 10  2  0  0  0  0
  8 15  1  0  0  0  0
  9 11  1  0  0  0  0
 10 16  1  0  0  0  0
 11 12  2  0  0  0  0
 12 14  1  0  0  0  0
 12 17  1  0  0  0  0
 14 18  1  0  0  0  0
 15 19  2  0  0  0  0
 15 24  1  0  0  0  0
 16 20  2  0  0  0  0
 16 25  1  0  0  0  0
 17 21  2  0  0  0  0
 17 26  1  0  0  0  0
 18 22  2  0  0  0  0
 18 27  1  0  0  0  0
 19 20  1  0  0  0  0
 19 28  1  0  0  0  0
 21 22  1  0  0  0  0
 21 30  1  0  0  0  0
 22 31  1  0  0  0  0
M  END
> <PUBCHEM_COMPOUND_CID>
5287844

> <PUBCHEM_COMPOUND_CANONICALIZED>
1

> <PUBCHEM_CACTVS_COMPLEXITY>
702

> <PUBCHEM_CACTVS_HBOND_ACCEPTOR>
4

> <PUBCHEM_CACTVS_HBOND_DONOR>
3

> <PUBCHEM_CACTVS_ROTATABLE_BOND>
1

> <PUBCHEM_CACTVS_SUBSKEYS>
AAADccB7MAAAEAAAAAAAAAAAAAAAAWIAAAAwQAAAAAAAAFgBAAAAHgBUCAABrAiBmAAwwILQAACoAyVyVACCAAAhAgQoiAEwZPgIYDLAlZGEIAhglADIy1cciICOAgAAAAECAAAEAAAAAgQAAAAAAAAAAA==

> <PUBCHEM_IUPAC_OPENEYE_NAME>
(3Z)-6-bromo-3-[3-(hydroxyamino)indol-2-ylidene]indolin-2-one

> <PUBCHEM_IUPAC_CAS_NAME>
(3Z)-6-bromo-3-[3-(hydroxyamino)-2-indolylidene]-1H-indol-2-one

> <PUBCHEM_IUPAC_NAME>
(3Z)-6-bromo-3-[3-(hydroxyamino)indol-2-ylidene]-1H-indol-2-one

> <PUBCHEM_IUPAC_SYSTEMATIC_NAME>
(3Z)-6-bromanyl-3-[3-(oxidanylamino)indol-2-ylidene]-1H-indol-2-one

> <PUBCHEM_IUPAC_TRADITIONAL_NAME>
(3Z)-6-bromo-3-[3-(hydroxyamino)indol-2-ylidene]oxindole

> <PUBCHEM_IUPAC_INCHI>
InChI=1S/C16H10BrN3O2/c17-8-5-6-9-12(7-8)19-16(21)13(9)15-14(20-22)10-3-1-2-4-11(10)18-15/h1-7,20,22H,(H,19,21)/b15-13-

> <PUBCHEM_IUPAC_INCHIKEY>
WNWSUJQVZJJGLF-SQFISAMPSA-N

> <PUBCHEM_XLOGP3_AA>
2

> <PUBCHEM_EXACT_MASS>
354.996

> <PUBCHEM_MOLECULAR_FORMULA>
C16H10BrN3O2

> <PUBCHEM_MOLECULAR_WEIGHT>
356.179

> <PUBCHEM_OPENEYE_CAN_SMILES>
C1=CC2=C(C(=C3C4=C(C=C(C=C4)Br)NC3=O)N=C2C=C1)NO

> <PUBCHEM_OPENEYE_ISO_SMILES>
C1=CC2=C(/C(=C/3\C4=C(C=C(C=C4)Br)NC3=O)/N=C2C=C1)NO

> <PUBCHEM_CACTVS_TPSA>
73.7

> <PUBCHEM_MONOISOTOPIC_WEIGHT>
354.996

> <PUBCHEM_TOTAL_CHARGE>
0

> <PUBCHEM_HEAVY_ATOM_COUNT>
22

> <PUBCHEM_ATOM_DEF_STEREO_COUNT>
0

> <PUBCHEM_ATOM_UDEF_STEREO_COUNT>
0

> <PUBCHEM_BOND_DEF_STEREO_COUNT>
1

> <PUBCHEM_BOND_UDEF_STEREO_COUNT>
0

> <PUBCHEM_ISOTOPIC_ATOM_COUNT>
0

> <PUBCHEM_COMPONENT_COUNT>
1

> <PUBCHEM_CACTVS_TAUTO_COUNT>
119

> <PUBCHEM_COORDINATE_TYPE>
1
5
255

> <PUBCHEM_BONDANNOTATIONS>
10  16  8
12  14  8
12  17  8
14  18  8
15  19  8
16  20  8
17  21  8
18  22  8
19  20  8
21  22  8
8  10  8
8  15  8

$$$$
44259
  -OEChem-11021604552D

 61 68  0     1  0  0  0  0  0999 V2000
    5.4017    2.3172    0.0000 O   0  0  0  0  0  0  0  0  0  0  0  0
    3.5998   -1.4246    0.0000 O   0  0  0  0  0  0  0  0  0  0  0  0
   10.6768    0.6180    0.0000 O   0  0  0  0  0  0  0  0  0  0  0  0
    5.9997   -0.6474    0.0000 N   0  0  0  0  0  0  0  0  0  0  0  0
    6.6837    1.2320    0.0000 N   0  0  0  0  0  0  0  0  0  0  0  0
    1.9091   -0.0555    0.0000 N   0  0  0  0  0  0  0  0  0  0  0  0
   10.3444   -1.1645    0.0000 N   0  0  0  0  0  0  0  0  0  0  0  0
    4.9239    0.3687    0.0000 C   0  0  2  0  0  0  0  0  0  0  0  0
    3.6522   -0.4260    0.0000 C   0  0  1  0  0  0  0  0  0  0  0  0
    4.6650    1.3346    0.0000 C   0  0  1  0  0  0  0  0  0  0  0  0
    2.8750    0.2034    0.0000 C   0  0  1  0  0  0  0  0  0  0  0  0
    3.2334    1.1369    0.0000 C   0  0  0  0  0  0  0  0  0  0  0  0
    6.9845   -0.4737    0.0000 C   0  0  0  0  0  0  0  0  0  0  0  0
    7.3265    0.4660    0.0000 C   0  0  0  0  0  0  0  0  0  0  0  0
    7.6416   -1.2819    0.0000 C   0  0  0  0  0  0  0  0  0  0  0  0
    8.3494    0.6626    0.0000 C   0  0  0  0  0  0  0  0  0  0  0  0
    6.0266   -1.6408    0.0000 C   0  0  0  0  0  0  0  0  0  0  0  0
    5.1827   -0.5972    0.0000 C   0  0  0  0  0  0  0  0  0  0  0  0
    7.3429    1.9757    0.0000 C   0  0  0  0  0  0  0  0  0  0  0  0
    6.9536   -1.9990    0.0000 C   0  0  0  0  0  0  0  0  0  0  0  0
    8.6688   -1.1089    0.0000 C   0  0  0  0  0  0  0  0  0  0  0  0
    9.0251   -0.1301    0.0000 C   0  0  0  0  0  0  0  0  0  0  0  0
    8.2833    1.6543    0.0000 C   0  0  0  0  0  0  0  0  0  0  0  0
    9.4864   -1.7443    0.0000 C   0  0  0  0  0  0  0  0  0  0  0  0
    5.2108   -2.2780    0.0000 C   0  0  0  0  0  0  0  0  0  0  0  0
   10.0598   -0.1689    0.0000 C   0  0  0  0  0  0  0  0  0  0  0  0
    7.1290   -3.0193    0.0000 C   0  0  0  0  0  0  0  0  0  0  0  0
    7.1275    2.9882    0.0000 C   0  0  0  0  0  0  0  0  0  0  0  0
    9.0735    2.3231    0.0000 C   0  0  0  0  0  0  0  0  0  0  0  0
    1.2020    0.6516    0.0000 C   0  0  0  0  0  0  0  0  0  0  0  0
    2.7088   -1.8786    0.0000 C   0  0  0  0  0  0  0  0  0  0  0  0
    5.3625   -3.3020    0.0000 C   0  0  0  0  0  0  0  0  0  0  0  0
    6.3281   -3.6751    0.0000 C   0  0  0  0  0  0  0  0  0  0  0  0
    7.9020    3.6751    0.0000 C   0  0  0  0  0  0  0  0  0  0  0  0
    8.8815    3.3403    0.0000 C   0  0  0  0  0  0  0  0  0  0  0  0
    3.0858   -0.6781    0.0000 H   0  0  0  0  0  0  0  0  0  0  0  0
    4.4451    2.1556    0.0000 H   0  0  0  0  0  0  0  0  0  0  0  0
    2.4602    0.6641    0.0000 H   0  0  0  0  0  0  0  0  0  0  0  0
    2.6256    1.2593    0.0000 H   0  0  0  0  0  0  0  0  0  0  0  0
    3.2524    1.7566    0.0000 H   0  0  0  0  0  0  0  0  0  0  0  0
    5.7816   -0.4368    0.0000 H   0  0  0  0  0  0  0  0  0  0  0  0
    5.3432   -1.1961    0.0000 H   0  0  0  0  0  0  0  0  0  0  0  0
    4.5838   -0.7577    0.0000 H   0  0  0  0  0  0  0  0  0  0  0  0
    1.7486   -0.6543    0.0000 H   0  0  0  0  0  0  0  0  0  0  0  0
    9.8856   -2.2187    0.0000 H   0  0  0  0  0  0  0  0  0  0  0  0
    9.0566   -2.1912    0.0000 H   0  0  0  0  0  0  0  0  0  0  0  0
    4.6351   -2.0478    0.0000 H   0  0  0  0  0  0  0  0  0  0  0  0
    7.7099   -3.2360    0.0000 H   0  0  0  0  0  0  0  0  0  0  0  0
    6.5386    3.1820    0.0000 H   0  0  0  0  0  0  0  0  0  0  0  0
   10.9270   -1.3766    0.0000 H   0  0  0  0  0  0  0  0  0  0  0  0
    9.6578    2.1157    0.0000 H   0  0  0  0  0  0  0  0  0  0  0  0
    0.7636    0.2132    0.0000 H   0  0  0  0  0  0  0  0  0  0  0  0
    0.7636    1.0900    0.0000 H   0  0  0  0  0  0  0  0  0  0  0  0
    1.6404    1.0900    0.0000 H   0  0  0  0  0  0  0  0  0  0  0  0
    2.9903   -2.4310    0.0000 H   0  0  0  0  0  0  0  0  0  0  0  0
    2.1564   -2.1600    0.0000 H   0  0  0  0  0  0  0  0  0  0  0  0
    2.4274   -1.3262    0.0000 H   0  0  0  0  0  0  0  0  0  0  0  0
    4.8783   -3.6892    0.0000 H   0  0  0  0  0  0  0  0  0  0  0  0
    6.4261   -4.2873    0.0000 H   0  0  0  0  0  0  0  0  0  0  0  0
    7.7800    4.2830    0.0000 H   0  0  0  0  0  0  0  0  0  0  0  0
    9.3501    3.7463    0.0000 H   0  0  0  0  0  0  0  0  0  0  0  0
  1  8  1  0  0  0  0
  1 10  1  0  0  0  0
  9  2  1  6  0  0  0
  2 31  1  0  0  0  0
  3 26  2  0  0  0  0
  4  8  1  0  0  0  0
  4 13  1  0  0  0  0
  4 17  1  0  0  0  0
  5 10  1  0  0  0  0
  5 14  1  0  0  0  0
  5 19  1  0  0  0  0
 11  6  1  6  0  0  0
  6 30  1  0  0  0  0
  6 44  1  0  0  0  0
  7 24  1  0  0  0  0
  7 26  1  0  0  0  0
  7 50  1  0  0  0  0
  8  9  1  0  0  0  0
  8 18  1  1  0  0  0
  9 11  1  0  0  0  0
  9 36  1  0  0  0  0
 10 12  1  0  0  0  0
 10 37  1  6  0  0  0
 11 12  1  0  0  0  0
 11 38  1  0  0  0  0
 12 39  1  0  0  0  0
 12 40  1  0  0  0  0
 13 14  2  0  0  0  0
 13 15  1  0  0  0  0
 14 16  1  0  0  0  0
 15 20  1  0  0  0  0
 15 21  2  0  0  0  0
 16 22  2  0  0  0  0
 16 23  1  0  0  0  0
 17 20  1  0  0  0  0
 17 25  2  0  0  0  0
 18 41  1  0  0  0  0
 18 42  1  0  0  0  0
 18 43  1  0  0  0  0
 19 23  1  0  0  0  0
 19 28  2  0  0  0  0
 20 27  2  0  0  0  0
 21 22  1  0  0  0  0
 21 24  1  0  0  0  0
 22 26  1  0  0  0  0
 23 29  2  0  0  0  0
 24 45  1  0  0  0  0
 24 46  1  0  0  0  0
 25 32  1  0  0  0  0
 25 47  1  0  0  0  0
 27 33  1  0  0  0  0
 27 48  1  0  0  0  0
 28 34  1  0  0  0  0
 28 49  1  0  0  0  0
 29 35  1  0  0  0  0
 29 51  1  0  0  0  0
 30 52  1  0  0  0  0
 30 53  1  0  0  0  0
 30 54  1  0  0  0  0
 31 55  1  0  0  0  0
 31 56  1  0  0  0  0
 31 57  1  0  0  0  0
 32 33  2  0  0  0  0
 32 58  1  0  0  0  0
 33 59  1  0  0  0  0
 34 35  2  0  0  0  0
 34 60  1  0  0  0  0
 35 61  1  0  0  0  0
M  END
> <PUBCHEM_COMPOUND_CID>
44259

> <PUBCHEM_COMPOUND_CANONICALIZED>
1

> <PUBCHEM_CACTVS_COMPLEXITY>
901

> <PUBCHEM_CACTVS_HBOND_ACCEPTOR>
4

> <PUBCHEM_CACTVS_HBOND_DONOR>
2

> <PUBCHEM_CACTVS_ROTATABLE_BOND>
2

> <PUBCHEM_CACTVS_SUBSKEYS>
AAADceB7sAAAAAAAAAAAAAAAAAAAAWLFgAA0YMEABYAAAFix/gAAHgAQAAAADDzhngYywPPMFACoAyVyVACCgCQlEiAI2KE4dNgLYPLA1ZGfIQhmlgDayQf82cOeyAACQAASACCQAASAACQAQAAAAAAAAA==

> <PUBCHEM_IUPAC_INCHI>
InChI=1S/C28H26N4O3/c1-28-26(34-3)17(29-2)12-20(35-28)31-18-10-6-4-8-14(18)22-23-16(13-30-27(23)33)21-15-9-5-7-11-19(15)32(28)25(21)24(22)31/h4-11,17,20,26,29H,12-13H2,1-3H3,(H,30,33)/t17-,20-,26-,28+/m1/s1

> <PUBCHEM_IUPAC_INCHIKEY>
HKSZLNNOFSGOKW-FYTWVXJKSA-N

> <PUBCHEM_XLOGP3_AA>
3.2

> <PUBCHEM_EXACT_MASS>
466.2

> <PUBCHEM_MOLECULAR_FORMULA>
C28H26N4O3

> <PUBCHEM_MOLECULAR_WEIGHT>
466.541

> <PUBCHEM_OPENEYE_CAN_SMILES>
CC12C(C(CC(O1)N3C4=CC=CC=C4C5=C6C(=C7C8=CC=CC=C8N2C7=C53)CNC6=O)NC)OC

> <PUBCHEM_OPENEYE_ISO_SMILES>
C[C@@]12[C@@H]([C@@H](C[C@@H](O1)N3C4=CC=CC=C4C5=C6C(=C7C8=CC=CC=C8N2C7=C53)CNC6=O)NC)OC

> <PUBCHEM_CACTVS_TPSA>
69.4

> <PUBCHEM_MONOISOTOPIC_WEIGHT>
466.2

> <PUBCHEM_TOTAL_CHARGE>
0

> <PUBCHEM_HEAVY_ATOM_COUNT>
35

> <PUBCHEM_ATOM_DEF_STEREO_COUNT>
4

> <PUBCHEM_ATOM_UDEF_STEREO_COUNT>
0

> <PUBCHEM_BOND_DEF_STEREO_COUNT>
0

> <PUBCHEM_BOND_UDEF_STEREO_COUNT>
0

> <PUBCHEM_ISOTOPIC_ATOM_COUNT>
0

> <PUBCHEM_COMPONENT_COUNT>
1

> <PUBCHEM_CACTVS_TAUTO_COUNT>
2

> <PUBCHEM_COORDINATE_TYPE>
1
5
255

> <PUBCHEM_BONDANNOTATIONS>
10  37  6
13  14  8
13  15  8
14  16  8
15  20  8
15  21  8
16  22  8
16  23  8
17  20  8
17  25  8
19  23  8
19  28  8
9  2  6
20  27  8
21  22  8
23  29  8
25  32  8
27  33  8
28  34  8
29  35  8
32  33  8
34  35  8
4  13  8
4  17  8
5  14  8
5  19  8
11  6  6
8  18  5

$$$$
118729149
  -OEChem-11021604552D

 56 60  0     1  0  0  0  0  0999 V2000
    5.5443    3.0322    0.0000 S   0  0  0  0  0  0  0  0  0  0  0  0
    5.2531   -1.7337    0.0000 F   0  0  0  0  0  0  0  0  0  0  0  0
    7.4067    3.9875    0.0000 O   0  0  0  0  0  0  0  0  0  0  0  0
    9.4758    3.3152    0.0000 O   0  0  0  0  0  0  0  0  0  0  0  0
   10.3893    1.5464    0.0000 O   0  0  0  0  0  0  0  0  0  0  0  0
   10.4435   -2.7415    0.0000 O   0  0  0  0  0  0  0  0  0  0  0  0
    7.1279    2.2274    0.0000 N   0  0  0  0  0  0  0  0  0  0  0  0
    5.5443    1.4227    0.0000 N   0  0  0  0  0  0  0  0  0  0  0  0
    7.7157    1.4184    0.0000 C   0  0  3  0  0  0  0  0  0  0  0  0
    8.6668    1.7274    0.0000 C   0  0  0  0  0  0  0  0  0  0  0  0
    7.1001    0.6303    0.0000 C   0  0  0  0  0  0  0  0  0  0  0  0
    7.7157    3.0364    0.0000 C   0  0  0  0  0  0  0  0  0  0  0  0
    8.6668    2.7274    0.0000 C   0  0  0  0  0  0  0  0  0  0  0  0
    6.1279    2.2274    0.0000 C   0  0  0  0  0  0  0  0  0  0  0  0
    9.4758    1.1396    0.0000 C   0  0  0  0  0  0  0  0  0  0  0  0
    7.4746   -0.2968    0.0000 C   0  0  0  0  0  0  0  0  0  0  0  0
    6.1098    0.7696    0.0000 C   0  0  0  0  0  0  0  0  0  0  0  0
    9.7178    0.1694    0.0000 C   0  0  0  0  0  0  0  0  0  0  0  0
    4.5981    2.7274    0.0000 C   0  0  0  0  0  0  0  0  0  0  0  0
    4.5981    1.7274    0.0000 C   0  0  0  0  0  0  0  0  0  0  0  0
    6.8590   -1.0848    0.0000 C   0  0  0  0  0  0  0  0  0  0  0  0
    5.4941   -0.0185    0.0000 C   0  0  0  0  0  0  0  0  0  0  0  0
    5.8688   -0.9457    0.0000 C   0  0  0  0  0  0  0  0  0  0  0  0
    3.7320    3.2274    0.0000 C   0  0  0  0  0  0  0  0  0  0  0  0
   10.6789   -0.1063    0.0000 C   0  0  0  0  0  0  0  0  0  0  0  0
    8.9984   -0.5253    0.0000 C   0  0  0  0  0  0  0  0  0  0  0  0
    3.7320    1.2274    0.0000 C   0  0  0  0  0  0  0  0  0  0  0  0
    2.8660    2.7274    0.0000 C   0  0  0  0  0  0  0  0  0  0  0  0
    2.8660    1.7274    0.0000 C   0  0  0  0  0  0  0  0  0  0  0  0
   10.9209   -1.0766    0.0000 C   0  0  0  0  0  0  0  0  0  0  0  0
    9.2403   -1.4956    0.0000 C   0  0  0  0  0  0  0  0  0  0  0  0
   10.2016   -1.7712    0.0000 C   0  0  0  0  0  0  0  0  0  0  0  0
    2.0000    3.2274    0.0000 C   0  0  0  0  0  0  0  0  0  0  0  0
   11.4047   -3.0172    0.0000 C   0  0  0  0  0  0  0  0  0  0  0  0
   11.6466   -3.9875    0.0000 C   0  0  0  0  0  0  0  0  0  0  0  0
    8.0713    0.9105    0.0000 H   0  0  0  0  0  0  0  0  0  0  0  0
    8.0886   -0.3831    0.0000 H   0  0  0  0  0  0  0  0  0  0  0  0
    5.8775    1.3444    0.0000 H   0  0  0  0  0  0  0  0  0  0  0  0
    7.0912   -1.6597    0.0000 H   0  0  0  0  0  0  0  0  0  0  0  0
    4.8801    0.0678    0.0000 H   0  0  0  0  0  0  0  0  0  0  0  0
    3.7320    3.8474    0.0000 H   0  0  0  0  0  0  0  0  0  0  0  0
   11.1249    0.3244    0.0000 H   0  0  0  0  0  0  0  0  0  0  0  0
    8.4024   -0.3544    0.0000 H   0  0  0  0  0  0  0  0  0  0  0  0
    3.7320    0.6074    0.0000 H   0  0  0  0  0  0  0  0  0  0  0  0
   10.8909    1.1819    0.0000 H   0  0  0  0  0  0  0  0  0  0  0  0
    2.3291    1.4174    0.0000 H   0  0  0  0  0  0  0  0  0  0  0  0
   11.5169   -1.2475    0.0000 H   0  0  0  0  0  0  0  0  0  0  0  0
    8.7943   -1.9263    0.0000 H   0  0  0  0  0  0  0  0  0  0  0  0
    2.3100    3.7644    0.0000 H   0  0  0  0  0  0  0  0  0  0  0  0
    1.4631    3.5374    0.0000 H   0  0  0  0  0  0  0  0  0  0  0  0
    1.6900    2.6905    0.0000 H   0  0  0  0  0  0  0  0  0  0  0  0
   12.0232   -2.9740    0.0000 H   0  0  0  0  0  0  0  0  0  0  0  0
   11.4695   -2.4006    0.0000 H   0  0  0  0  0  0  0  0  0  0  0  0
   11.0451   -4.1375    0.0000 H   0  0  0  0  0  0  0  0  0  0  0  0
   11.7966   -4.5891    0.0000 H   0  0  0  0  0  0  0  0  0  0  0  0
   12.2482   -3.8375    0.0000 H   0  0  0  0  0  0  0  0  0  0  0  0
  1 14  1  0  0  0  0
  1 19  1  0  0  0  0
  2 23  1  0  0  0  0
  3 12  2  0  0  0  0
  4 13  2  0  0  0  0
  5 15  1  0  0  0  0
  5 45  1  0  0  0  0
  6 32  1  0  0  0  0
  6 34  1  0  0  0  0
  7  9  1  0  0  0  0
  7 12  1  0  0  0  0
  7 14  1  0  0  0  0
  8 14  2  0  0  0  0
  8 20  1  0  0  0  0
  9 10  1  0  0  0  0
  9 11  1  0  0  0  0
  9 36  1  0  0  0  0
 10 13  1  0  0  0  0
 10 15  2  0  0  0  0
 11 16  2  0  0  0  0
 11 17  1  0  0  0  0
 12 13  1  0  0  0  0
 15 18  1  0  0  0  0
 16 21  1  0  0  0  0
 16 37  1  0  0  0  0
 17 22  2  0  0  0  0
 17 38  1  0  0  0  0
 18 25  2  0  0  0  0
 18 26  1  0  0  0  0
 19 20  2  0  0  0  0
 19 24  1  0  0  0  0
 20 27  1  0  0  0  0
 21 23  2  0  0  0  0
 21 39  1  0  0  0  0
 22 23  1  0  0  0  0
 22 40  1  0  0  0  0
 24 28  2  0  0  0  0
 24 41  1  0  0  0  0
 25 30  1  0  0  0  0
 25 42  1  0  0  0  0
 26 31  2  0  0  0  0
 26 43  1  0  0  0  0
 27 29  2  0  0  0  0
 27 44  1  0  0  0  0
 28 29  1  0  0  0  0
 28 33  1  0  0  0  0
 29 46  1  0  0  0  0
 30 32  2  0  0  0  0
 30 47  1  0  0  0  0
 31 32  1  0  0  0  0
 31 48  1  0  0  0  0
 33 49  1  0  0  0  0
 33 50  1  0  0  0  0
 33 51  1  0  0  0  0
 34 35  1  0  0  0  0
 34 52  1  0  0  0  0
 34 53  1  0  0  0  0
 35 54  1  0  0  0  0
 35 55  1  0  0  0  0
 35 56  1  0  0  0  0
M  END
> <PUBCHEM_COMPOUND_CID>
118729149

> <PUBCHEM_COMPOUND_CANONICALIZED>
1

> <PUBCHEM_CACTVS_COMPLEXITY>
837

> <PUBCHEM_CACTVS_HBOND_ACCEPTOR>
7

> <PUBCHEM_CACTVS_HBOND_DONOR>
1

> <PUBCHEM_CACTVS_ROTATABLE_BOND>
5

> <PUBCHEM_CACTVS_SUBSKEYS>
AAADceB7OQBAAAAAAAAAAAAAAAAAAWLAAAAwYMAAAAAAAFgB9AAAHwQACAAADCzh3g4z17MIFgisA6VydACD+KlhKjhJmD2+bNiMJrrkubuGeCjsxxPI+Sec6KyOKAAAgAAAAQBQAAEAAAACAAAAAAAAAA==

> <PUBCHEM_IUPAC_OPENEYE_NAME>
(4Z)-4-[(4-ethoxyphenyl)-hydroxy-methylene]-5-(4-fluorophenyl)-1-(6-methyl-1,3-benzothiazol-2-yl)pyrrolidine-2,3-dione

> <PUBCHEM_IUPAC_CAS_NAME>
(4Z)-4-[(4-ethoxyphenyl)-hydroxymethylidene]-5-(4-fluorophenyl)-1-(6-methyl-1,3-benzothiazol-2-yl)pyrrolidine-2,3-dione

> <PUBCHEM_IUPAC_NAME>
(4Z)-4-[(4-ethoxyphenyl)-hydroxymethylidene]-5-(4-fluorophenyl)-1-(6-methyl-1,3-benzothiazol-2-yl)pyrrolidine-2,3-dione

> <PUBCHEM_IUPAC_SYSTEMATIC_NAME>
(4Z)-4-[(4-ethoxyphenyl)-oxidanyl-methylidene]-5-(4-fluorophenyl)-1-(6-methyl-1,3-benzothiazol-2-yl)pyrrolidine-2,3-dione

> <PUBCHEM_IUPAC_TRADITIONAL_NAME>
(4Z)-5-(4-fluorophenyl)-4-[hydroxy(p-phenetyl)methylene]-1-(6-methyl-1,3-benzothiazol-2-yl)pyrrolidine-2,3-quinone

> <PUBCHEM_IUPAC_INCHI>
InChI=1S/C27H21FN2O4S/c1-3-34-19-11-7-17(8-12-19)24(31)22-23(16-5-9-18(28)10-6-16)30(26(33)25(22)32)27-29-20-13-4-15(2)14-21(20)35-27/h4-14,23,31H,3H2,1-2H3/b24-22-

> <PUBCHEM_IUPAC_INCHIKEY>
CNVSFZZFVZVOGF-GYHWCHFESA-N

> <PUBCHEM_XLOGP3_AA>
6.1

> <PUBCHEM_EXACT_MASS>
488.121

> <PUBCHEM_MOLECULAR_FORMULA>
C27H21FN2O4S

> <PUBCHEM_MOLECULAR_WEIGHT>
488.533

> <PUBCHEM_OPENEYE_CAN_SMILES>
CCOC1=CC=C(C=C1)C(=C2C(N(C(=O)C2=O)C3=NC4=C(S3)C=C(C=C4)C)C5=CC=C(C=C5)F)O

> <PUBCHEM_OPENEYE_ISO_SMILES>
CCOC1=CC=C(C=C1)/C(=C/2\C(N(C(=O)C2=O)C3=NC4=C(S3)C=C(C=C4)C)C5=CC=C(C=C5)F)/O

> <PUBCHEM_CACTVS_TPSA>
108

> <PUBCHEM_MONOISOTOPIC_WEIGHT>
488.121

> <PUBCHEM_TOTAL_CHARGE>
0

> <PUBCHEM_HEAVY_ATOM_COUNT>
35

> <PUBCHEM_ATOM_DEF_STEREO_COUNT>
0

> <PUBCHEM_ATOM_UDEF_STEREO_COUNT>
1

> <PUBCHEM_BOND_DEF_STEREO_COUNT>
1

> <PUBCHEM_BOND_UDEF_STEREO_COUNT>
0

> <PUBCHEM_ISOTOPIC_ATOM_COUNT>
0

> <PUBCHEM_COMPONENT_COUNT>
1

> <PUBCHEM_CACTVS_TAUTO_COUNT>
9

> <PUBCHEM_COORDINATE_TYPE>
1
5
255

> <PUBCHEM_BONDANNOTATIONS>
1  14  8
1  19  8
11  16  8
11  17  8
16  21  8
17  22  8
18  25  8
18  26  8
19  20  8
19  24  8
20  27  8
21  23  8
22  23  8
24  28  8
25  30  8
26  31  8
27  29  8
28  29  8
30  32  8
31  32  8
8  14  8
8  20  8
9  11  3

$$$$
3845066
  -OEChem-11021604552D

 43 47  0     1  0  0  0  0  0999 V2000
    5.1414   -2.1759    0.0000 Cl  0  0  0  0  0  0  0  0  0  0  0  0
    5.5443    1.7558    0.0000 S   0  0  0  0  0  0  0  0  0  0  0  0
    2.0000    1.9511    0.0000 F   0  0  0  0  0  0  0  0  0  0  0  0
    9.4758    2.0388    0.0000 O   0  0  0  0  0  0  0  0  0  0  0  0
    7.4067    2.7111    0.0000 O   0  0  0  0  0  0  0  0  0  0  0  0
    9.3712   -1.1312    0.0000 O   0  0  0  0  0  0  0  0  0  0  0  0
   10.5972    1.2482    0.0000 O   0  0  0  0  0  0  0  0  0  0  0  0
    7.1279    0.9511    0.0000 N   0  0  0  0  0  0  0  0  0  0  0  0
    5.5443    0.1463    0.0000 N   0  0  0  0  0  0  0  0  0  0  0  0
    7.7157    0.1420    0.0000 C   0  0  3  0  0  0  0  0  0  0  0  0
    8.6668    0.4511    0.0000 C   0  0  0  0  0  0  0  0  0  0  0  0
    7.4067   -0.8090    0.0000 C   0  0  0  0  0  0  0  0  0  0  0  0
    8.6668    1.4511    0.0000 C   0  0  0  0  0  0  0  0  0  0  0  0
    7.7157    1.7601    0.0000 C   0  0  0  0  0  0  0  0  0  0  0  0
    6.1279    0.9511    0.0000 C   0  0  0  0  0  0  0  0  0  0  0  0
    9.4758   -0.1367    0.0000 C   0  0  0  0  0  0  0  0  0  0  0  0
    6.4285   -1.0169    0.0000 C   0  0  0  0  0  0  0  0  0  0  0  0
    8.0758   -1.5522    0.0000 C   0  0  0  0  0  0  0  0  0  0  0  0
    4.5981    1.4511    0.0000 C   0  0  0  0  0  0  0  0  0  0  0  0
    4.5981    0.4511    0.0000 C   0  0  0  0  0  0  0  0  0  0  0  0
   10.3893    0.2700    0.0000 C   0  0  0  0  0  0  0  0  0  0  0  0
    6.1195   -1.9680    0.0000 C   0  0  0  0  0  0  0  0  0  0  0  0
    7.7668   -2.5032    0.0000 C   0  0  0  0  0  0  0  0  0  0  0  0
    6.7886   -2.7111    0.0000 C   0  0  0  0  0  0  0  0  0  0  0  0
    3.7320    1.9511    0.0000 C   0  0  0  0  0  0  0  0  0  0  0  0
    3.7320   -0.0489    0.0000 C   0  0  0  0  0  0  0  0  0  0  0  0
   11.2553   -0.2300    0.0000 C   0  0  0  0  0  0  0  0  0  0  0  0
    2.8660    1.4511    0.0000 C   0  0  0  0  0  0  0  0  0  0  0  0
    2.8660    0.4511    0.0000 C   0  0  0  0  0  0  0  0  0  0  0  0
   11.9985    0.4391    0.0000 C   0  0  0  0  0  0  0  0  0  0  0  0
   11.5917    1.3527    0.0000 C   0  0  0  0  0  0  0  0  0  0  0  0
    6.8762    0.0091    0.0000 H   0  0  0  0  0  0  0  0  0  0  0  0
    6.0137   -0.5562    0.0000 H   0  0  0  0  0  0  0  0  0  0  0  0
    8.6822   -1.4233    0.0000 H   0  0  0  0  0  0  0  0  0  0  0  0
    8.1816   -2.9640    0.0000 H   0  0  0  0  0  0  0  0  0  0  0  0
    9.4110    2.6554    0.0000 H   0  0  0  0  0  0  0  0  0  0  0  0
    6.5970   -3.3008    0.0000 H   0  0  0  0  0  0  0  0  0  0  0  0
    3.7320    2.5711    0.0000 H   0  0  0  0  0  0  0  0  0  0  0  0
    3.7320   -0.6689    0.0000 H   0  0  0  0  0  0  0  0  0  0  0  0
   11.3201   -0.8466    0.0000 H   0  0  0  0  0  0  0  0  0  0  0  0
    2.3291    0.1411    0.0000 H   0  0  0  0  0  0  0  0  0  0  0  0
   12.6049    0.3102    0.0000 H   0  0  0  0  0  0  0  0  0  0  0  0
   11.9017    1.8896    0.0000 H   0  0  0  0  0  0  0  0  0  0  0  0
  1 22  1  0  0  0  0
  2 15  1  0  0  0  0
  2 19  1  0  0  0  0
  3 28  1  0  0  0  0
  4 13  1  0  0  0  0
  4 36  1  0  0  0  0
  5 14  2  0  0  0  0
  6 16  2  0  0  0  0
  7 21  1  0  0  0  0
  7 31  1  0  0  0  0
  8 10  1  0  0  0  0
  8 14  1  0  0  0  0
  8 15  1  0  0  0  0
  9 15  2  0  0  0  0
  9 20  1  0  0  0  0
 10 11  1  0  0  0  0
 10 12  1  0  0  0  0
 10 32  1  0  0  0  0
 11 13  2  0  0  0  0
 11 16  1  0  0  0  0
 12 17  2  0  0  0  0
 12 18  1  0  0  0  0
 13 14  1  0  0  0  0
 16 21  1  0  0  0  0
 17 22  1  0  0  0  0
 17 33  1  0  0  0  0
 18 23  2  0  0  0  0
 18 34  1  0  0  0  0
 19 20  2  0  0  0  0
 19 25  1  0  0  0  0
 20 26  1  0  0  0  0
 21 27  2  0  0  0  0
 22 24  2  0  0  0  0
 23 24  1  0  0  0  0
 23 35  1  0  0  0  0
 24 37  1  0  0  0  0
 25 28  2  0  0  0  0
 25 38  1  0  0  0  0
 26 29  2  0  0  0  0
 26 39  1  0  0  0  0
 27 30  1  0  0  0  0
 27 40  1  0  0  0  0
 28 29  1  0  0  0  0
 29 41  1  0  0  0  0
 30 31  2  0  0  0  0
 30 42  1  0  0  0  0
 31 43  1  0  0  0  0
M  END
> <PUBCHEM_COMPOUND_CID>
3845066

> <PUBCHEM_COMPOUND_CANONICALIZED>
1

> <PUBCHEM_CACTVS_COMPLEXITY>
783

> <PUBCHEM_CACTVS_HBOND_ACCEPTOR>
7

> <PUBCHEM_CACTVS_HBOND_DONOR>
1

> <PUBCHEM_CACTVS_ROTATABLE_BOND>
4

> <PUBCHEM_CACTVS_SUBSKEYS>
AAADccB7OQBEAAAAAAAAAAAAAAAAAWJEAAAwYAAAAAAAAFgB/AAAHwYACAAADC7h3i4x1bMIFkisA61y9AKD+KllLzhJmD1+btiOJrrlv5+GOSjsxxPY6ae8zvCuAAAAIAAAAQAAAABAAAACAAAAAAAAAA==

> <PUBCHEM_IUPAC_OPENEYE_NAME>
2-(3-chlorophenyl)-1-(6-fluoro-1,3-benzothiazol-2-yl)-3-(furan-2-carbonyl)-4-hydroxy-2H-pyrrol-5-one

> <PUBCHEM_IUPAC_CAS_NAME>
2-(3-chlorophenyl)-1-(6-fluoro-1,3-benzothiazol-2-yl)-3-[2-furanyl(oxo)methyl]-4-hydroxy-2H-pyrrol-5-one

> <PUBCHEM_IUPAC_NAME>
2-(3-chlorophenyl)-1-(6-fluoro-1,3-benzothiazol-2-yl)-3-(furan-2-carbonyl)-4-hydroxy-2H-pyrrol-5-one

> <PUBCHEM_IUPAC_SYSTEMATIC_NAME>
2-(3-chlorophenyl)-1-(6-fluoranyl-1,3-benzothiazol-2-yl)-3-(furan-2-ylcarbonyl)-4-oxidanyl-2H-pyrrol-5-one

> <PUBCHEM_IUPAC_TRADITIONAL_NAME>
5-(3-chlorophenyl)-1-(6-fluoro-1,3-benzothiazol-2-yl)-4-(2-furoyl)-3-hydroxy-3-pyrrolin-2-one

> <PUBCHEM_IUPAC_INCHI>
InChI=1S/C22H12ClFN2O4S/c23-12-4-1-3-11(9-12)18-17(19(27)15-5-2-8-30-15)20(28)21(29)26(18)22-25-14-7-6-13(24)10-16(14)31-22/h1-10,18,28H

> <PUBCHEM_IUPAC_INCHIKEY>
QDJLMTYHBATSHD-UHFFFAOYSA-N

> <PUBCHEM_XLOGP3_AA>
5.5

> <PUBCHEM_EXACT_MASS>
454.019

> <PUBCHEM_MOLECULAR_FORMULA>
C22H12ClFN2O4S

> <PUBCHEM_MOLECULAR_WEIGHT>
454.856

> <PUBCHEM_OPENEYE_CAN_SMILES>
C1=CC(=CC(=C1)Cl)C2C(=C(C(=O)N2C3=NC4=C(S3)C=C(C=C4)F)O)C(=O)C5=CC=CO5

> <PUBCHEM_OPENEYE_ISO_SMILES>
C1=CC(=CC(=C1)Cl)C2C(=C(C(=O)N2C3=NC4=C(S3)C=C(C=C4)F)O)C(=O)C5=CC=CO5

> <PUBCHEM_CACTVS_TPSA>
112

> <PUBCHEM_MONOISOTOPIC_WEIGHT>
454.019

> <PUBCHEM_TOTAL_CHARGE>
0

> <PUBCHEM_HEAVY_ATOM_COUNT>
31

> <PUBCHEM_ATOM_DEF_STEREO_COUNT>
0

> <PUBCHEM_ATOM_UDEF_STEREO_COUNT>
1

> <PUBCHEM_BOND_DEF_STEREO_COUNT>
0

> <PUBCHEM_BOND_UDEF_STEREO_COUNT>
0

> <PUBCHEM_ISOTOPIC_ATOM_COUNT>
0

> <PUBCHEM_COMPONENT_COUNT>
1

> <PUBCHEM_CACTVS_TAUTO_COUNT>
3

> <PUBCHEM_COORDINATE_TYPE>
1
5
255

> <PUBCHEM_BONDANNOTATIONS>
10  32  3
12  17  8
12  18  8
17  22  8
18  23  8
19  20  8
19  25  8
2  15  8
2  19  8
20  26  8
21  27  8
22  24  8
23  24  8
25  28  8
26  29  8
27  30  8
28  29  8
30  31  8
7  21  8
7  31  8
9  15  8
9  20  8

$$$$
6157349
  -OEChem-11021604552D

 65 70  0     1  0  0  0  0  0999 V2000
    5.5045    1.6304    0.0000 S   0  0  0  0  0  0  0  0  0  0  0  0
    9.4440    0.7599    0.0000 O   0  0  0  0  0  0  0  0  0  0  0  0
    9.2166    3.9235    0.0000 O   0  0  0  0  0  0  0  0  0  0  0  0
    7.0886    4.3759    0.0000 O   0  0  0  0  0  0  0  0  0  0  0  0
    6.8328   -2.0594    0.0000 O   0  0  0  0  0  0  0  0  0  0  0  0
   12.9360    1.7252    0.0000 O   0  0  0  0  0  0  0  0  0  0  0  0
   12.9360    3.7945    0.0000 O   0  0  0  0  0  0  0  0  0  0  0  0
    6.9953    2.5963    0.0000 N   0  0  0  0  0  0  0  0  0  0  0  0
    5.3362    3.2311    0.0000 N   0  0  0  0  0  0  0  0  0  0  0  0
    7.6644    1.8531    0.0000 C   0  0  3  0  0  0  0  0  0  0  0  0
    8.5780    2.2599    0.0000 C   0  0  0  0  0  0  0  0  0  0  0  0
    7.4565    0.8750    0.0000 C   0  0  0  0  0  0  0  0  0  0  0  0
    8.4734    3.2544    0.0000 C   0  0  0  0  0  0  0  0  0  0  0  0
    7.4953    3.4623    0.0000 C   0  0  0  0  0  0  0  0  0  0  0  0
    9.4440    1.7599    0.0000 C   0  0  0  0  0  0  0  0  0  0  0  0
    6.0008    2.4918    0.0000 C   0  0  0  0  0  0  0  0  0  0  0  0
    6.5054    0.5660    0.0000 C   0  0  0  0  0  0  0  0  0  0  0  0
    8.1996    0.2059    0.0000 C   0  0  0  0  0  0  0  0  0  0  0  0
   10.3100    2.2599    0.0000 C   0  0  0  0  0  0  0  0  0  0  0  0
    4.5316    1.8346    0.0000 C   0  0  0  0  0  0  0  0  0  0  0  0
    4.4271    2.8291    0.0000 C   0  0  0  0  0  0  0  0  0  0  0  0
    6.2975   -0.4122    0.0000 C   0  0  0  0  0  0  0  0  0  0  0  0
    7.9917   -0.7723    0.0000 C   0  0  0  0  0  0  0  0  0  0  0  0
    7.0407   -1.0813    0.0000 C   0  0  0  0  0  0  0  0  0  0  0  0
   11.1760    1.7599    0.0000 C   0  0  0  0  0  0  0  0  0  0  0  0
   10.3100    3.2599    0.0000 C   0  0  0  0  0  0  0  0  0  0  0  0
   12.0421    2.2599    0.0000 C   0  0  0  0  0  0  0  0  0  0  0  0
   12.0421    3.2599    0.0000 C   0  0  0  0  0  0  0  0  0  0  0  0
    3.7226    1.2468    0.0000 C   0  0  0  0  0  0  0  0  0  0  0  0
   11.1760    3.7599    0.0000 C   0  0  0  0  0  0  0  0  0  0  0  0
    3.5135    3.2358    0.0000 C   0  0  0  0  0  0  0  0  0  0  0  0
    2.8090    1.6535    0.0000 C   0  0  0  0  0  0  0  0  0  0  0  0
    2.7045    2.6481    0.0000 C   0  0  0  0  0  0  0  0  0  0  0  0
   13.8421    2.2391    0.0000 C   0  0  0  0  0  0  0  0  0  0  0  0
   13.8421    3.2807    0.0000 C   0  0  0  0  0  0  0  0  0  0  0  0
    7.5759   -2.7286    0.0000 C   0  0  0  0  0  0  0  0  0  0  0  0
    2.0000    1.0658    0.0000 C   0  0  0  0  0  0  0  0  0  0  0  0
    7.3680   -3.7067    0.0000 C   0  0  0  0  0  0  0  0  0  0  0  0
    8.1112   -4.3759    0.0000 C   0  0  0  0  0  0  0  0  0  0  0  0
    7.0655    1.6927    0.0000 H   0  0  0  0  0  0  0  0  0  0  0  0
    6.0447    0.9808    0.0000 H   0  0  0  0  0  0  0  0  0  0  0  0
    8.7893    0.3975    0.0000 H   0  0  0  0  0  0  0  0  0  0  0  0
    5.7079   -0.6038    0.0000 H   0  0  0  0  0  0  0  0  0  0  0  0
    8.4525   -1.1871    0.0000 H   0  0  0  0  0  0  0  0  0  0  0  0
   11.1760    1.1399    0.0000 H   0  0  0  0  0  0  0  0  0  0  0  0
    9.7731    3.5699    0.0000 H   0  0  0  0  0  0  0  0  0  0  0  0
    9.9809    0.4499    0.0000 H   0  0  0  0  0  0  0  0  0  0  0  0
   11.1760    4.3799    0.0000 H   0  0  0  0  0  0  0  0  0  0  0  0
    3.7874    0.6302    0.0000 H   0  0  0  0  0  0  0  0  0  0  0  0
    3.4487    3.8524    0.0000 H   0  0  0  0  0  0  0  0  0  0  0  0
    2.1381    2.9002    0.0000 H   0  0  0  0  0  0  0  0  0  0  0  0
   14.0511    1.6554    0.0000 H   0  0  0  0  0  0  0  0  0  0  0  0
   14.4529    2.3452    0.0000 H   0  0  0  0  0  0  0  0  0  0  0  0
   14.4529    3.1746    0.0000 H   0  0  0  0  0  0  0  0  0  0  0  0
   14.0511    3.8644    0.0000 H   0  0  0  0  0  0  0  0  0  0  0  0
    8.1508   -2.9608    0.0000 H   0  0  0  0  0  0  0  0  0  0  0  0
    7.9045   -2.2028    0.0000 H   0  0  0  0  0  0  0  0  0  0  0  0
    1.6356    1.5673    0.0000 H   0  0  0  0  0  0  0  0  0  0  0  0
    1.4984    0.7013    0.0000 H   0  0  0  0  0  0  0  0  0  0  0  0
    2.3644    0.5642    0.0000 H   0  0  0  0  0  0  0  0  0  0  0  0
    6.7932   -3.4745    0.0000 H   0  0  0  0  0  0  0  0  0  0  0  0
    7.0394   -4.2325    0.0000 H   0  0  0  0  0  0  0  0  0  0  0  0
    7.6963   -4.8366    0.0000 H   0  0  0  0  0  0  0  0  0  0  0  0
    8.5719   -4.7907    0.0000 H   0  0  0  0  0  0  0  0  0  0  0  0
    8.5260   -3.9151    0.0000 H   0  0  0  0  0  0  0  0  0  0  0  0
  1 16  1  0  0  0  0
  1 20  1  0  0  0  0
  2 15  1  0  0  0  0
  2 47  1  0  0  0  0
  3 13  2  0  0  0  0
  4 14  2  0  0  0  0
  5 24  1  0  0  0  0
  5 36  1  0  0  0  0
  6 27  1  0  0  0  0
  6 34  1  0  0  0  0
  7 28  1  0  0  0  0
  7 35  1  0  0  0  0
  8 10  1  0  0  0  0
  8 14  1  0  0  0  0
  8 16  1  0  0  0  0
  9 16  2  0  0  0  0
  9 21  1  0  0  0  0
 10 11  1  0  0  0  0
 10 12  1  0  0  0  0
 10 40  1  0  0  0  0
 11 13  1  0  0  0  0
 11 15  2  0  0  0  0
 12 17  2  0  0  0  0
 12 18  1  0  0  0  0
 13 14  1  0  0  0  0
 15 19  1  0  0  0  0
 17 22  1  0  0  0  0
 17 41  1  0  0  0  0
 18 23  2  0  0  0  0
 18 42  1  0  0  0  0
 19 25  2  0  0  0  0
 19 26  1  0  0  0  0
 20 21  2  0  0  0  0
 20 29  1  0  0  0  0
 21 31  1  0  0  0  0
 22 24  2  0  0  0  0
 22 43  1  0  0  0  0
 23 24  1  0  0  0  0
 23 44  1  0  0  0  0
 25 27  1  0  0  0  0
 25 45  1  0  0  0  0
 26 30  2  0  0  0  0
 26 46  1  0  0  0  0
 27 28  2  0  0  0  0
 28 30  1  0  0  0  0
 29 32  2  0  0  0  0
 29 49  1  0  0  0  0
 30 48  1  0  0  0  0
 31 33  2  0  0  0  0
 31 50  1  0  0  0  0
 32 33  1  0  0  0  0
 32 37  1  0  0  0  0
 33 51  1  0  0  0  0
 34 35  1  0  0  0  0
 34 52  1  0  0  0  0
 34 53  1  0  0  0  0
 35 54  1  0  0  0  0
 35 55  1  0  0  0  0
 36 38  1  0  0  0  0
 36 56  1  0  0  0  0
 36 57  1  0  0  0  0
 37 58  1  0  0  0  0
 37 59  1  0  0  0  0
 37 60  1  0  0  0  0
 38 39  1  0  0  0  0
 38 61  1  0  0  0  0
 38 62  1  0  0  0  0
 39 63  1  0  0  0  0
 39 64  1  0  0  0  0
 39 65  1  0  0  0  0
M  END
> <PUBCHEM_COMPOUND_CID>
6157349

> <PUBCHEM_COMPOUND_CANONICALIZED>
1

> <PUBCHEM_CACTVS_COMPLEXITY>
952

> <PUBCHEM_CACTVS_HBOND_ACCEPTOR>
8

> <PUBCHEM_CACTVS_HBOND_DONOR>
1

> <PUBCHEM_CACTVS_ROTATABLE_BOND>
6

> <PUBCHEM_CACTVS_SUBSKEYS>
AAADceB7OABAAAAAAAAAAAAAAAAAAWLAAAA0YMEAAAAAAFiR9AAAHgQACAAADCzh3gYz17MIFgisA6VydACD+KlhKjhJmD2+7NiNJrrkubuGeCrsxxPK+Sfc+L+OKAABgAAAQQBQAAMAAACCAAAAAAAAAA==

> <PUBCHEM_IUPAC_OPENEYE_NAME>
(4E)-4-[2,3-dihydro-1,4-benzodioxin-6-yl(hydroxy)methylene]-1-(6-methyl-1,3-benzothiazol-2-yl)-5-(4-propoxyphenyl)pyrrolidine-2,3-dione

> <PUBCHEM_IUPAC_CAS_NAME>
(4E)-4-[2,3-dihydro-1,4-benzodioxin-6-yl(hydroxy)methylidene]-1-(6-methyl-1,3-benzothiazol-2-yl)-5-(4-propoxyphenyl)pyrrolidine-2,3-dione

> <PUBCHEM_IUPAC_NAME>
(4E)-4-[2,3-dihydro-1,4-benzodioxin-6-yl(hydroxy)methylidene]-1-(6-methyl-1,3-benzothiazol-2-yl)-5-(4-propoxyphenyl)pyrrolidine-2,3-dione

> <PUBCHEM_IUPAC_SYSTEMATIC_NAME>
(4E)-4-[2,3-dihydro-1,4-benzodioxin-6-yl(oxidanyl)methylidene]-1-(6-methyl-1,3-benzothiazol-2-yl)-5-(4-propoxyphenyl)pyrrolidine-2,3-dione

> <PUBCHEM_IUPAC_TRADITIONAL_NAME>
(4E)-4-[2,3-dihydro-1,4-benzodioxin-6-yl(hydroxy)methylene]-1-(6-methyl-1,3-benzothiazol-2-yl)-5-(4-propoxyphenyl)pyrrolidine-2,3-quinone

> <PUBCHEM_IUPAC_INCHI>
InChI=1S/C30H26N2O6S/c1-3-12-36-20-8-5-18(6-9-20)26-25(27(33)19-7-11-22-23(16-19)38-14-13-37-22)28(34)29(35)32(26)30-31-21-10-4-17(2)15-24(21)39-30/h4-11,15-16,26,33H,3,12-14H2,1-2H3/b27-25+

> <PUBCHEM_IUPAC_INCHIKEY>
CNSRVAOHPVOYRJ-IMVLJIQESA-N

> <PUBCHEM_XLOGP3_AA>
6.2

> <PUBCHEM_EXACT_MASS>
542.151

> <PUBCHEM_MOLECULAR_FORMULA>
C30H26N2O6S

> <PUBCHEM_MOLECULAR_WEIGHT>
542.606

> <PUBCHEM_OPENEYE_CAN_SMILES>
CCCOC1=CC=C(C=C1)C2C(=C(C3=CC4=C(C=C3)OCCO4)O)C(=O)C(=O)N2C5=NC6=C(S5)C=C(C=C6)C

> <PUBCHEM_OPENEYE_ISO_SMILES>
CCCOC1=CC=C(C=C1)C2/C(=C(/C3=CC4=C(C=C3)OCCO4)\O)/C(=O)C(=O)N2C5=NC6=C(S5)C=C(C=C6)C

> <PUBCHEM_CACTVS_TPSA>
126

> <PUBCHEM_MONOISOTOPIC_WEIGHT>
542.151

> <PUBCHEM_TOTAL_CHARGE>
0

> <PUBCHEM_HEAVY_ATOM_COUNT>
39

> <PUBCHEM_ATOM_DEF_STEREO_COUNT>
0

> <PUBCHEM_ATOM_UDEF_STEREO_COUNT>
1

> <PUBCHEM_BOND_DEF_STEREO_COUNT>
1

> <PUBCHEM_BOND_UDEF_STEREO_COUNT>
0

> <PUBCHEM_ISOTOPIC_ATOM_COUNT>
0

> <PUBCHEM_COMPONENT_COUNT>
1

> <PUBCHEM_CACTVS_TAUTO_COUNT>
3

> <PUBCHEM_COORDINATE_TYPE>
1
5
255

> <PUBCHEM_BONDANNOTATIONS>
1  16  8
1  20  8
10  12  3
12  17  8
12  18  8
17  22  8
18  23  8
19  25  8
19  26  8
20  21  8
20  29  8
21  31  8
22  24  8
23  24  8
25  27  8
26  30  8
27  28  8
28  30  8
29  32  8
31  33  8
32  33  8
9  16  8
9  21  8

$$$$
6275597
  -OEChem-11021604552D

 68 73  0     1  0  0  0  0  0999 V2000
    5.5045    2.1195    0.0000 S   0  0  0  0  0  0  0  0  0  0  0  0
    9.4440    1.2490    0.0000 O   0  0  0  0  0  0  0  0  0  0  0  0
    9.2166    4.4126    0.0000 O   0  0  0  0  0  0  0  0  0  0  0  0
    7.0886    4.8649    0.0000 O   0  0  0  0  0  0  0  0  0  0  0  0
    6.8328   -1.5704    0.0000 O   0  0  0  0  0  0  0  0  0  0  0  0
   12.9360    2.2143    0.0000 O   0  0  0  0  0  0  0  0  0  0  0  0
   12.9360    4.2836    0.0000 O   0  0  0  0  0  0  0  0  0  0  0  0
    6.9953    3.0854    0.0000 N   0  0  0  0  0  0  0  0  0  0  0  0
    5.3362    3.7202    0.0000 N   0  0  0  0  0  0  0  0  0  0  0  0
    7.6644    2.3422    0.0000 C   0  0  3  0  0  0  0  0  0  0  0  0
    8.5780    2.7489    0.0000 C   0  0  0  0  0  0  0  0  0  0  0  0
    7.4565    1.3641    0.0000 C   0  0  0  0  0  0  0  0  0  0  0  0
    8.4734    3.7435    0.0000 C   0  0  0  0  0  0  0  0  0  0  0  0
    7.4953    3.9514    0.0000 C   0  0  0  0  0  0  0  0  0  0  0  0
    9.4440    2.2489    0.0000 C   0  0  0  0  0  0  0  0  0  0  0  0
    6.0008    2.9808    0.0000 C   0  0  0  0  0  0  0  0  0  0  0  0
    6.5054    1.0550    0.0000 C   0  0  0  0  0  0  0  0  0  0  0  0
    8.1996    0.6949    0.0000 C   0  0  0  0  0  0  0  0  0  0  0  0
   10.3100    2.7489    0.0000 C   0  0  0  0  0  0  0  0  0  0  0  0
    6.2975    0.0769    0.0000 C   0  0  0  0  0  0  0  0  0  0  0  0
    7.9917   -0.2832    0.0000 C   0  0  0  0  0  0  0  0  0  0  0  0
    4.5316    2.3237    0.0000 C   0  0  0  0  0  0  0  0  0  0  0  0
    4.4271    3.3182    0.0000 C   0  0  0  0  0  0  0  0  0  0  0  0
    7.0407   -0.5922    0.0000 C   0  0  0  0  0  0  0  0  0  0  0  0
   11.1760    2.2489    0.0000 C   0  0  0  0  0  0  0  0  0  0  0  0
   10.3100    3.7490    0.0000 C   0  0  0  0  0  0  0  0  0  0  0  0
   12.0421    2.7489    0.0000 C   0  0  0  0  0  0  0  0  0  0  0  0
   12.0421    3.7490    0.0000 C   0  0  0  0  0  0  0  0  0  0  0  0
    3.7226    1.7359    0.0000 C   0  0  0  0  0  0  0  0  0  0  0  0
   11.1760    4.2490    0.0000 C   0  0  0  0  0  0  0  0  0  0  0  0
    3.5135    3.7249    0.0000 C   0  0  0  0  0  0  0  0  0  0  0  0
    2.8090    2.1426    0.0000 C   0  0  0  0  0  0  0  0  0  0  0  0
    7.5759   -2.2395    0.0000 C   0  0  0  0  0  0  0  0  0  0  0  0
    2.7045    3.1371    0.0000 C   0  0  0  0  0  0  0  0  0  0  0  0
    7.3680   -3.2176    0.0000 C   0  0  0  0  0  0  0  0  0  0  0  0
   13.8421    2.7281    0.0000 C   0  0  0  0  0  0  0  0  0  0  0  0
   13.8421    3.7698    0.0000 C   0  0  0  0  0  0  0  0  0  0  0  0
    8.1112   -3.8868    0.0000 C   0  0  0  0  0  0  0  0  0  0  0  0
    2.0000    1.5548    0.0000 C   0  0  0  0  0  0  0  0  0  0  0  0
    7.9032   -4.8649    0.0000 C   0  0  0  0  0  0  0  0  0  0  0  0
    7.0655    2.1818    0.0000 H   0  0  0  0  0  0  0  0  0  0  0  0
    6.0447    1.4699    0.0000 H   0  0  0  0  0  0  0  0  0  0  0  0
    8.7893    0.8865    0.0000 H   0  0  0  0  0  0  0  0  0  0  0  0
    5.7079   -0.1147    0.0000 H   0  0  0  0  0  0  0  0  0  0  0  0
    8.4525   -0.6981    0.0000 H   0  0  0  0  0  0  0  0  0  0  0  0
   11.1760    1.6289    0.0000 H   0  0  0  0  0  0  0  0  0  0  0  0
    9.7731    4.0590    0.0000 H   0  0  0  0  0  0  0  0  0  0  0  0
    9.9809    0.9390    0.0000 H   0  0  0  0  0  0  0  0  0  0  0  0
    3.7874    1.1193    0.0000 H   0  0  0  0  0  0  0  0  0  0  0  0
   11.1760    4.8690    0.0000 H   0  0  0  0  0  0  0  0  0  0  0  0
    3.4487    4.3415    0.0000 H   0  0  0  0  0  0  0  0  0  0  0  0
    8.1508   -2.4718    0.0000 H   0  0  0  0  0  0  0  0  0  0  0  0
    7.9045   -1.7137    0.0000 H   0  0  0  0  0  0  0  0  0  0  0  0
    2.1381    3.3893    0.0000 H   0  0  0  0  0  0  0  0  0  0  0  0
    6.7932   -2.9854    0.0000 H   0  0  0  0  0  0  0  0  0  0  0  0
    7.0394   -3.7434    0.0000 H   0  0  0  0  0  0  0  0  0  0  0  0
   14.0511    2.1444    0.0000 H   0  0  0  0  0  0  0  0  0  0  0  0
   14.4529    2.8342    0.0000 H   0  0  0  0  0  0  0  0  0  0  0  0
   14.4529    3.6637    0.0000 H   0  0  0  0  0  0  0  0  0  0  0  0
   14.0511    4.3535    0.0000 H   0  0  0  0  0  0  0  0  0  0  0  0
    8.6860   -4.1190    0.0000 H   0  0  0  0  0  0  0  0  0  0  0  0
    8.4397   -3.3610    0.0000 H   0  0  0  0  0  0  0  0  0  0  0  0
    1.6356    2.0564    0.0000 H   0  0  0  0  0  0  0  0  0  0  0  0
    1.4984    1.1904    0.0000 H   0  0  0  0  0  0  0  0  0  0  0  0
    2.3644    1.0532    0.0000 H   0  0  0  0  0  0  0  0  0  0  0  0
    7.2968   -4.7360    0.0000 H   0  0  0  0  0  0  0  0  0  0  0  0
    7.7743   -5.4714    0.0000 H   0  0  0  0  0  0  0  0  0  0  0  0
    8.5097   -4.9938    0.0000 H   0  0  0  0  0  0  0  0  0  0  0  0
  1 16  1  0  0  0  0
  1 22  1  0  0  0  0
  2 15  1  0  0  0  0
  2 48  1  0  0  0  0
  3 13  2  0  0  0  0
  4 14  2  0  0  0  0
  5 24  1  0  0  0  0
  5 33  1  0  0  0  0
  6 27  1  0  0  0  0
  6 36  1  0  0  0  0
  7 28  1  0  0  0  0
  7 37  1  0  0  0  0
  8 10  1  0  0  0  0
  8 14  1  0  0  0  0
  8 16  1  0  0  0  0
  9 16  2  0  0  0  0
  9 23  1  0  0  0  0
 10 11  1  0  0  0  0
 10 12  1  0  0  0  0
 10 41  1  0  0  0  0
 11 13  1  0  0  0  0
 11 15  2  0  0  0  0
 12 17  2  0  0  0  0
 12 18  1  0  0  0  0
 13 14  1  0  0  0  0
 15 19  1  0  0  0  0
 17 20  1  0  0  0  0
 17 42  1  0  0  0  0
 18 21  2  0  0  0  0
 18 43  1  0  0  0  0
 19 25  2  0  0  0  0
 19 26  1  0  0  0  0
 20 24  2  0  0  0  0
 20 44  1  0  0  0  0
 21 24  1  0  0  0  0
 21 45  1  0  0  0  0
 22 23  2  0  0  0  0
 22 29  1  0  0  0  0
 23 31  1  0  0  0  0
 25 27  1  0  0  0  0
 25 46  1  0  0  0  0
 26 30  2  0  0  0  0
 26 47  1  0  0  0  0
 27 28  2  0  0  0  0
 28 30  1  0  0  0  0
 29 32  2  0  0  0  0
 29 49  1  0  0  0  0
 30 50  1  0  0  0  0
 31 34  2  0  0  0  0
 31 51  1  0  0  0  0
 32 34  1  0  0  0  0
 32 39  1  0  0  0  0
 33 35  1  0  0  0  0
 33 52  1  0  0  0  0
 33 53  1  0  0  0  0
 34 54  1  0  0  0  0
 35 38  1  0  0  0  0
 35 55  1  0  0  0  0
 35 56  1  0  0  0  0
 36 37  1  0  0  0  0
 36 57  1  0  0  0  0
 36 58  1  0  0  0  0
 37 59  1  0  0  0  0
 37 60  1  0  0  0  0
 38 40  1  0  0  0  0
 38 61  1  0  0  0  0
 38 62  1  0  0  0  0
 39 63  1  0  0  0  0
 39 64  1  0  0  0  0
 39 65  1  0  0  0  0
 40 66  1  0  0  0  0
 40 67  1  0  0  0  0
 40 68  1  0  0  0  0
M  END
> <PUBCHEM_COMPOUND_CID>
6275597

> <PUBCHEM_COMPOUND_CANONICALIZED>
1

> <PUBCHEM_CACTVS_COMPLEXITY>
968

> <PUBCHEM_CACTVS_HBOND_ACCEPTOR>
8

> <PUBCHEM_CACTVS_HBOND_DONOR>
1

> <PUBCHEM_CACTVS_ROTATABLE_BOND>
7

> <PUBCHEM_CACTVS_SUBSKEYS>
AAADceB7OABAAAAAAAAAAAAAAAAAAWLAAAA0YMEAAAAAAFiR9AAAHgQACAAADCzh3gYz17MIFgisA6VydACD+KlhKjhJmD2+7NiNJrrkubuGeCrsxxPK+Sfc+L+OKAABgAAAQQBQAAMAAACCAAAAAAAAAA==

> <PUBCHEM_IUPAC_OPENEYE_NAME>
(4E)-5-(4-butoxyphenyl)-4-[2,3-dihydro-1,4-benzodioxin-6-yl(hydroxy)methylene]-1-(6-methyl-1,3-benzothiazol-2-yl)pyrrolidine-2,3-dione

> <PUBCHEM_IUPAC_CAS_NAME>
(4E)-5-(4-butoxyphenyl)-4-[2,3-dihydro-1,4-benzodioxin-6-yl(hydroxy)methylidene]-1-(6-methyl-1,3-benzothiazol-2-yl)pyrrolidine-2,3-dione

> <PUBCHEM_IUPAC_NAME>
(4E)-5-(4-butoxyphenyl)-4-[2,3-dihydro-1,4-benzodioxin-6-yl(hydroxy)methylidene]-1-(6-methyl-1,3-benzothiazol-2-yl)pyrrolidine-2,3-dione

> <PUBCHEM_IUPAC_SYSTEMATIC_NAME>
(4E)-5-(4-butoxyphenyl)-4-[2,3-dihydro-1,4-benzodioxin-6-yl(oxidanyl)methylidene]-1-(6-methyl-1,3-benzothiazol-2-yl)pyrrolidine-2,3-dione

> <PUBCHEM_IUPAC_TRADITIONAL_NAME>
(4E)-5-(4-butoxyphenyl)-4-[2,3-dihydro-1,4-benzodioxin-6-yl(hydroxy)methylene]-1-(6-methyl-1,3-benzothiazol-2-yl)pyrrolidine-2,3-quinone

> <PUBCHEM_IUPAC_INCHI>
InChI=1S/C31H28N2O6S/c1-3-4-13-37-21-9-6-19(7-10-21)27-26(28(34)20-8-12-23-24(17-20)39-15-14-38-23)29(35)30(36)33(27)31-32-22-11-5-18(2)16-25(22)40-31/h5-12,16-17,27,34H,3-4,13-15H2,1-2H3/b28-26+

> <PUBCHEM_IUPAC_INCHIKEY>
CQNXBLHYBVAPHB-BYCLXTJYSA-N

> <PUBCHEM_XLOGP3_AA>
6.6

> <PUBCHEM_EXACT_MASS>
556.167

> <PUBCHEM_MOLECULAR_FORMULA>
C31H28N2O6S

> <PUBCHEM_MOLECULAR_WEIGHT>
556.633

> <PUBCHEM_OPENEYE_CAN_SMILES>
CCCCOC1=CC=C(C=C1)C2C(=C(C3=CC4=C(C=C3)OCCO4)O)C(=O)C(=O)N2C5=NC6=C(S5)C=C(C=C6)C

> <PUBCHEM_OPENEYE_ISO_SMILES>
CCCCOC1=CC=C(C=C1)C2/C(=C(/C3=CC4=C(C=C3)OCCO4)\O)/C(=O)C(=O)N2C5=NC6=C(S5)C=C(C=C6)C

> <PUBCHEM_CACTVS_TPSA>
126

> <PUBCHEM_MONOISOTOPIC_WEIGHT>
556.167

> <PUBCHEM_TOTAL_CHARGE>
0

> <PUBCHEM_HEAVY_ATOM_COUNT>
40

> <PUBCHEM_ATOM_DEF_STEREO_COUNT>
0

> <PUBCHEM_ATOM_UDEF_STEREO_COUNT>
1

> <PUBCHEM_BOND_DEF_STEREO_COUNT>
1

> <PUBCHEM_BOND_UDEF_STEREO_COUNT>
0

> <PUBCHEM_ISOTOPIC_ATOM_COUNT>
0

> <PUBCHEM_COMPONENT_COUNT>
1

> <PUBCHEM_CACTVS_TAUTO_COUNT>
3

> <PUBCHEM_COORDINATE_TYPE>
1
5
255

> <PUBCHEM_BONDANNOTATIONS>
1  16  8
1  22  8
10  12  3
12  17  8
12  18  8
17  20  8
18  21  8
19  25  8
19  26  8
20  24  8
21  24  8
22  23  8
22  29  8
23  31  8
25  27  8
26  30  8
27  28  8
28  30  8
29  32  8
31  34  8
32  34  8
9  16  8
9  23  8

$$$$
3811406
  -OEChem-11021604552D

 46 50  0     1  0  0  0  0  0999 V2000
    6.4796   -3.1867    0.0000 Cl  0  0  0  0  0  0  0  0  0  0  0  0
    5.5443    2.2313    0.0000 S   0  0  0  0  0  0  0  0  0  0  0  0
    9.4758    2.5144    0.0000 O   0  0  0  0  0  0  0  0  0  0  0  0
    7.4067    3.1867    0.0000 O   0  0  0  0  0  0  0  0  0  0  0  0
    9.3712   -0.6557    0.0000 O   0  0  0  0  0  0  0  0  0  0  0  0
   10.5972    1.7237    0.0000 O   0  0  0  0  0  0  0  0  0  0  0  0
    7.1279    1.4266    0.0000 N   0  0  0  0  0  0  0  0  0  0  0  0
    5.5443    0.6219    0.0000 N   0  0  0  0  0  0  0  0  0  0  0  0
    7.7157    0.6176    0.0000 C   0  0  3  0  0  0  0  0  0  0  0  0
    8.6668    0.9266    0.0000 C   0  0  0  0  0  0  0  0  0  0  0  0
    7.4067   -0.3335    0.0000 C   0  0  0  0  0  0  0  0  0  0  0  0
    8.6668    1.9266    0.0000 C   0  0  0  0  0  0  0  0  0  0  0  0
    7.7157    2.2356    0.0000 C   0  0  0  0  0  0  0  0  0  0  0  0
    6.1279    1.4266    0.0000 C   0  0  0  0  0  0  0  0  0  0  0  0
    9.4758    0.3388    0.0000 C   0  0  0  0  0  0  0  0  0  0  0  0
    6.4285   -0.5414    0.0000 C   0  0  0  0  0  0  0  0  0  0  0  0
    8.0758   -1.0766    0.0000 C   0  0  0  0  0  0  0  0  0  0  0  0
    4.5981    1.9266    0.0000 C   0  0  0  0  0  0  0  0  0  0  0  0
    4.5981    0.9266    0.0000 C   0  0  0  0  0  0  0  0  0  0  0  0
   10.3893    0.7455    0.0000 C   0  0  0  0  0  0  0  0  0  0  0  0
    6.1195   -1.4925    0.0000 C   0  0  0  0  0  0  0  0  0  0  0  0
    7.7668   -2.0277    0.0000 C   0  0  0  0  0  0  0  0  0  0  0  0
    3.7320    2.4266    0.0000 C   0  0  0  0  0  0  0  0  0  0  0  0
    6.7886   -2.2356    0.0000 C   0  0  0  0  0  0  0  0  0  0  0  0
    3.7320    0.4266    0.0000 C   0  0  0  0  0  0  0  0  0  0  0  0
    2.8660    1.9266    0.0000 C   0  0  0  0  0  0  0  0  0  0  0  0
    2.8660    0.9266    0.0000 C   0  0  0  0  0  0  0  0  0  0  0  0
   11.2553    0.2455    0.0000 C   0  0  0  0  0  0  0  0  0  0  0  0
    2.0000    2.4266    0.0000 C   0  0  0  0  0  0  0  0  0  0  0  0
   11.9985    0.9147    0.0000 C   0  0  0  0  0  0  0  0  0  0  0  0
   11.5917    1.8282    0.0000 C   0  0  0  0  0  0  0  0  0  0  0  0
    7.1033    0.5206    0.0000 H   0  0  0  0  0  0  0  0  0  0  0  0
    6.0137   -0.0807    0.0000 H   0  0  0  0  0  0  0  0  0  0  0  0
    8.6822   -0.9477    0.0000 H   0  0  0  0  0  0  0  0  0  0  0  0
    5.5131   -1.6214    0.0000 H   0  0  0  0  0  0  0  0  0  0  0  0
    8.1816   -2.4884    0.0000 H   0  0  0  0  0  0  0  0  0  0  0  0
    9.4110    3.1310    0.0000 H   0  0  0  0  0  0  0  0  0  0  0  0
    3.7320    3.0466    0.0000 H   0  0  0  0  0  0  0  0  0  0  0  0
    3.7320   -0.1934    0.0000 H   0  0  0  0  0  0  0  0  0  0  0  0
    2.3291    0.6166    0.0000 H   0  0  0  0  0  0  0  0  0  0  0  0
   11.3201   -0.3711    0.0000 H   0  0  0  0  0  0  0  0  0  0  0  0
    2.3100    2.9635    0.0000 H   0  0  0  0  0  0  0  0  0  0  0  0
    1.4631    2.7366    0.0000 H   0  0  0  0  0  0  0  0  0  0  0  0
    1.6900    1.8896    0.0000 H   0  0  0  0  0  0  0  0  0  0  0  0
   12.6049    0.7858    0.0000 H   0  0  0  0  0  0  0  0  0  0  0  0
   11.9017    2.3652    0.0000 H   0  0  0  0  0  0  0  0  0  0  0  0
  1 24  1  0  0  0  0
  2 14  1  0  0  0  0
  2 18  1  0  0  0  0
  3 12  1  0  0  0  0
  3 37  1  0  0  0  0
  4 13  2  0  0  0  0
  5 15  2  0  0  0  0
  6 20  1  0  0  0  0
  6 31  1  0  0  0  0
  7  9  1  0  0  0  0
  7 13  1  0  0  0  0
  7 14  1  0  0  0  0
  8 14  2  0  0  0  0
  8 19  1  0  0  0  0
  9 10  1  0  0  0  0
  9 11  1  0  0  0  0
  9 32  1  0  0  0  0
 10 12  2  0  0  0  0
 10 15  1  0  0  0  0
 11 16  2  0  0  0  0
 11 17  1  0  0  0  0
 12 13  1  0  0  0  0
 15 20  1  0  0  0  0
 16 21  1  0  0  0  0
 16 33  1  0  0  0  0
 17 22  2  0  0  0  0
 17 34  1  0  0  0  0
 18 19  2  0  0  0  0
 18 23  1  0  0  0  0
 19 25  1  0  0  0  0
 20 28  2  0  0  0  0
 21 24  2  0  0  0  0
 21 35  1  0  0  0  0
 22 24  1  0  0  0  0
 22 36  1  0  0  0  0
 23 26  2  0  0  0  0
 23 38  1  0  0  0  0
 25 27  2  0  0  0  0
 25 39  1  0  0  0  0
 26 27  1  0  0  0  0
 26 29  1  0  0  0  0
 27 40  1  0  0  0  0
 28 30  1  0  0  0  0
 28 41  1  0  0  0  0
 29 42  1  0  0  0  0
 29 43  1  0  0  0  0
 29 44  1  0  0  0  0
 30 31  2  0  0  0  0
 30 45  1  0  0  0  0
 31 46  1  0  0  0  0
M  END
> <PUBCHEM_COMPOUND_CID>
3811406

> <PUBCHEM_COMPOUND_CANONICALIZED>
1

> <PUBCHEM_CACTVS_COMPLEXITY>
769

> <PUBCHEM_CACTVS_HBOND_ACCEPTOR>
6

> <PUBCHEM_CACTVS_HBOND_DONOR>
1

> <PUBCHEM_CACTVS_ROTATABLE_BOND>
4

> <PUBCHEM_CACTVS_SUBSKEYS>
AAADccB7OABEAAAAAAAAAAAAAAAAAWJEAAAwYAAAAAAAAFgB/AAAHgYACAAADC7h3iYz1bMIFkisA61y9AKD+KllLzhJmD1+btiOJrrlv5+GOSjsxxPY6ae8zvCuDAAAgAAAAQAYAAEAAAACAAAAAAAAAA==

> <PUBCHEM_IUPAC_OPENEYE_NAME>
2-(4-chlorophenyl)-3-(furan-2-carbonyl)-4-hydroxy-1-(6-methyl-1,3-benzothiazol-2-yl)-2H-pyrrol-5-one

> <PUBCHEM_IUPAC_CAS_NAME>
2-(4-chlorophenyl)-3-[2-furanyl(oxo)methyl]-4-hydroxy-1-(6-methyl-1,3-benzothiazol-2-yl)-2H-pyrrol-5-one

> <PUBCHEM_IUPAC_NAME>
2-(4-chlorophenyl)-3-(furan-2-carbonyl)-4-hydroxy-1-(6-methyl-1,3-benzothiazol-2-yl)-2H-pyrrol-5-one

> <PUBCHEM_IUPAC_SYSTEMATIC_NAME>
2-(4-chlorophenyl)-3-(furan-2-ylcarbonyl)-1-(6-methyl-1,3-benzothiazol-2-yl)-4-oxidanyl-2H-pyrrol-5-one

> <PUBCHEM_IUPAC_TRADITIONAL_NAME>
5-(4-chlorophenyl)-4-(2-furoyl)-3-hydroxy-1-(6-methyl-1,3-benzothiazol-2-yl)-3-pyrrolin-2-one

> <PUBCHEM_IUPAC_INCHI>
InChI=1S/C23H15ClN2O4S/c1-12-4-9-15-17(11-12)31-23(25-15)26-19(13-5-7-14(24)8-6-13)18(21(28)22(26)29)20(27)16-3-2-10-30-16/h2-11,19,28H,1H3

> <PUBCHEM_IUPAC_INCHIKEY>
USHNTESJPBAJHZ-UHFFFAOYSA-N

> <PUBCHEM_XLOGP3_AA>
5.7

> <PUBCHEM_EXACT_MASS>
450.044

> <PUBCHEM_MOLECULAR_FORMULA>
C23H15ClN2O4S

> <PUBCHEM_MOLECULAR_WEIGHT>
450.893

> <PUBCHEM_OPENEYE_CAN_SMILES>
CC1=CC2=C(C=C1)N=C(S2)N3C(C(=C(C3=O)O)C(=O)C4=CC=CO4)C5=CC=C(C=C5)Cl

> <PUBCHEM_OPENEYE_ISO_SMILES>
CC1=CC2=C(C=C1)N=C(S2)N3C(C(=C(C3=O)O)C(=O)C4=CC=CO4)C5=CC=C(C=C5)Cl

> <PUBCHEM_CACTVS_TPSA>
112

> <PUBCHEM_MONOISOTOPIC_WEIGHT>
450.044

> <PUBCHEM_TOTAL_CHARGE>
0

> <PUBCHEM_HEAVY_ATOM_COUNT>
31

> <PUBCHEM_ATOM_DEF_STEREO_COUNT>
0

> <PUBCHEM_ATOM_UDEF_STEREO_COUNT>
1

> <PUBCHEM_BOND_DEF_STEREO_COUNT>
0

> <PUBCHEM_BOND_UDEF_STEREO_COUNT>
0

> <PUBCHEM_ISOTOPIC_ATOM_COUNT>
0

> <PUBCHEM_COMPONENT_COUNT>
1

> <PUBCHEM_CACTVS_TAUTO_COUNT>
3

> <PUBCHEM_COORDINATE_TYPE>
1
5
255

> <PUBCHEM_BONDANNOTATIONS>
11  16  8
11  17  8
16  21  8
17  22  8
18  19  8
18  23  8
19  25  8
2  14  8
2  18  8
20  28  8
21  24  8
22  24  8
23  26  8
25  27  8
26  27  8
28  30  8
30  31  8
6  20  8
6  31  8
8  14  8
8  19  8
9  11  3

$$$$
118729147
  -OEChem-11021604552D

 61 65  0     1  0  0  0  0  0999 V2000
    5.5443    2.4092    0.0000 S   0  0  0  0  0  0  0  0  0  0  0  0
    2.0000    2.6044    0.0000 F   0  0  0  0  0  0  0  0  0  0  0  0
    7.4067    3.3645    0.0000 O   0  0  0  0  0  0  0  0  0  0  0  0
    9.4758    2.6922    0.0000 O   0  0  0  0  0  0  0  0  0  0  0  0
   10.3893    0.9234    0.0000 O   0  0  0  0  0  0  0  0  0  0  0  0
    7.1279    1.6044    0.0000 N   0  0  0  0  0  0  0  0  0  0  0  0
    5.5443    0.7997    0.0000 N   0  0  0  0  0  0  0  0  0  0  0  0
    7.7157    0.7954    0.0000 C   0  0  3  0  0  0  0  0  0  0  0  0
    5.2531   -2.3567    0.0000 C   0  0  0  0  0  0  0  0  0  0  0  0
    7.1001    0.0074    0.0000 C   0  0  0  0  0  0  0  0  0  0  0  0
    5.8688   -1.5687    0.0000 C   0  0  0  0  0  0  0  0  0  0  0  0
    8.6668    1.1044    0.0000 C   0  0  0  0  0  0  0  0  0  0  0  0
    6.1098    0.1466    0.0000 C   0  0  0  0  0  0  0  0  0  0  0  0
    7.4746   -0.9198    0.0000 C   0  0  0  0  0  0  0  0  0  0  0  0
    5.4941   -0.6414    0.0000 C   0  0  0  0  0  0  0  0  0  0  0  0
    6.8590   -1.7078    0.0000 C   0  0  0  0  0  0  0  0  0  0  0  0
    7.7157    2.4134    0.0000 C   0  0  0  0  0  0  0  0  0  0  0  0
    8.6668    2.1044    0.0000 C   0  0  0  0  0  0  0  0  0  0  0  0
    4.6374   -3.1447    0.0000 C   0  0  0  0  0  0  0  0  0  0  0  0
    4.4650   -1.7410    0.0000 C   0  0  0  0  0  0  0  0  0  0  0  0
    6.0411   -2.9723    0.0000 C   0  0  0  0  0  0  0  0  0  0  0  0
    6.1279    1.6044    0.0000 C   0  0  0  0  0  0  0  0  0  0  0  0
    9.4758    0.5167    0.0000 C   0  0  0  0  0  0  0  0  0  0  0  0
    9.7178   -0.4536    0.0000 C   0  0  0  0  0  0  0  0  0  0  0  0
    4.5981    2.1044    0.0000 C   0  0  0  0  0  0  0  0  0  0  0  0
    4.5981    1.1044    0.0000 C   0  0  0  0  0  0  0  0  0  0  0  0
   10.6789   -0.7293    0.0000 C   0  0  0  0  0  0  0  0  0  0  0  0
    8.9984   -1.1483    0.0000 C   0  0  0  0  0  0  0  0  0  0  0  0
    3.7320    2.6044    0.0000 C   0  0  0  0  0  0  0  0  0  0  0  0
    3.7320    0.6044    0.0000 C   0  0  0  0  0  0  0  0  0  0  0  0
   10.9209   -1.6996    0.0000 C   0  0  0  0  0  0  0  0  0  0  0  0
    9.2403   -2.1186    0.0000 C   0  0  0  0  0  0  0  0  0  0  0  0
   10.2016   -2.3942    0.0000 C   0  0  0  0  0  0  0  0  0  0  0  0
    2.8660    2.1044    0.0000 C   0  0  0  0  0  0  0  0  0  0  0  0
    2.8660    1.1044    0.0000 C   0  0  0  0  0  0  0  0  0  0  0  0
   10.4435   -3.3645    0.0000 C   0  0  0  0  0  0  0  0  0  0  0  0
    8.0713    0.2876    0.0000 H   0  0  0  0  0  0  0  0  0  0  0  0
    5.8775    0.7214    0.0000 H   0  0  0  0  0  0  0  0  0  0  0  0
    8.0886   -1.0061    0.0000 H   0  0  0  0  0  0  0  0  0  0  0  0
    4.8801   -0.5552    0.0000 H   0  0  0  0  0  0  0  0  0  0  0  0
    7.0912   -2.2826    0.0000 H   0  0  0  0  0  0  0  0  0  0  0  0
    4.1489   -2.7630    0.0000 H   0  0  0  0  0  0  0  0  0  0  0  0
    4.2557   -3.6332    0.0000 H   0  0  0  0  0  0  0  0  0  0  0  0
    5.1260   -3.5264    0.0000 H   0  0  0  0  0  0  0  0  0  0  0  0
    5.6594   -3.4609    0.0000 H   0  0  0  0  0  0  0  0  0  0  0  0
    6.5297   -3.3540    0.0000 H   0  0  0  0  0  0  0  0  0  0  0  0
    6.4228   -2.4838    0.0000 H   0  0  0  0  0  0  0  0  0  0  0  0
    4.8468   -1.2524    0.0000 H   0  0  0  0  0  0  0  0  0  0  0  0
    3.9765   -1.3593    0.0000 H   0  0  0  0  0  0  0  0  0  0  0  0
    4.0834   -2.2296    0.0000 H   0  0  0  0  0  0  0  0  0  0  0  0
   11.1249   -0.2986    0.0000 H   0  0  0  0  0  0  0  0  0  0  0  0
    8.4024   -0.9774    0.0000 H   0  0  0  0  0  0  0  0  0  0  0  0
   10.8909    0.5590    0.0000 H   0  0  0  0  0  0  0  0  0  0  0  0
    3.7320    3.2244    0.0000 H   0  0  0  0  0  0  0  0  0  0  0  0
    3.7320   -0.0156    0.0000 H   0  0  0  0  0  0  0  0  0  0  0  0
   11.5169   -1.8705    0.0000 H   0  0  0  0  0  0  0  0  0  0  0  0
    8.7943   -2.5493    0.0000 H   0  0  0  0  0  0  0  0  0  0  0  0
    2.3291    0.7944    0.0000 H   0  0  0  0  0  0  0  0  0  0  0  0
    9.8420   -3.5145    0.0000 H   0  0  0  0  0  0  0  0  0  0  0  0
   10.5935   -3.9661    0.0000 H   0  0  0  0  0  0  0  0  0  0  0  0
   11.0451   -3.2145    0.0000 H   0  0  0  0  0  0  0  0  0  0  0  0
  1 22  1  0  0  0  0
  1 25  1  0  0  0  0
  2 34  1  0  0  0  0
  3 17  2  0  0  0  0
  4 18  2  0  0  0  0
  5 23  1  0  0  0  0
  5 53  1  0  0  0  0
  6  8  1  0  0  0  0
  6 17  1  0  0  0  0
  6 22  1  0  0  0  0
  7 22  2  0  0  0  0
  7 26  1  0  0  0  0
  8 10  1  0  0  0  0
  8 12  1  0  0  0  0
  8 37  1  0  0  0  0
  9 11  1  0  0  0  0
  9 19  1  0  0  0  0
  9 20  1  0  0  0  0
  9 21  1  0  0  0  0
 10 13  2  0  0  0  0
 10 14  1  0  0  0  0
 11 15  2  0  0  0  0
 11 16  1  0  0  0  0
 12 18  1  0  0  0  0
 12 23  2  0  0  0  0
 13 15  1  0  0  0  0
 13 38  1  0  0  0  0
 14 16  2  0  0  0  0
 14 39  1  0  0  0  0
 15 40  1  0  0  0  0
 16 41  1  0  0  0  0
 17 18  1  0  0  0  0
 19 42  1  0  0  0  0
 19 43  1  0  0  0  0
 19 44  1  0  0  0  0
 20 48  1  0  0  0  0
 20 49  1  0  0  0  0
 20 50  1  0  0  0  0
 21 45  1  0  0  0  0
 21 46  1  0  0  0  0
 21 47  1  0  0  0  0
 23 24  1  0  0  0  0
 24 27  2  0  0  0  0
 24 28  1  0  0  0  0
 25 26  2  0  0  0  0
 25 29  1  0  0  0  0
 26 30  1  0  0  0  0
 27 31  1  0  0  0  0
 27 51  1  0  0  0  0
 28 32  2  0  0  0  0
 28 52  1  0  0  0  0
 29 34  2  0  0  0  0
 29 54  1  0  0  0  0
 30 35  2  0  0  0  0
 30 55  1  0  0  0  0
 31 33  2  0  0  0  0
 31 56  1  0  0  0  0
 32 33  1  0  0  0  0
 32 57  1  0  0  0  0
 33 36  1  0  0  0  0
 34 35  1  0  0  0  0
 35 58  1  0  0  0  0
 36 59  1  0  0  0  0
 36 60  1  0  0  0  0
 36 61  1  0  0  0  0
M  END
> <PUBCHEM_COMPOUND_CID>
118729147

> <PUBCHEM_COMPOUND_CANONICALIZED>
1

> <PUBCHEM_CACTVS_COMPLEXITY>
885

> <PUBCHEM_CACTVS_HBOND_ACCEPTOR>
6

> <PUBCHEM_CACTVS_HBOND_DONOR>
1

> <PUBCHEM_CACTVS_ROTATABLE_BOND>
4

> <PUBCHEM_CACTVS_SUBSKEYS>
AAADceB7MQBAAAAAAAAAAAAAAAAAAWLAAAAwYMAAAAAAAFgB9AAAHwQACAAADizB3gwz0bMIEgisA6VydACD8KlhKjhJmD24bNiIJrrgmbGEcAhsxwPI2SecyPCPwAAAAAAAAQCAAAAAAAACAAAAAAAAAA==

> <PUBCHEM_IUPAC_OPENEYE_NAME>
(4Z)-5-(4-tert-butylphenyl)-1-(6-fluoro-1,3-benzothiazol-2-yl)-4-[hydroxy(p-tolyl)methylene]pyrrolidine-2,3-dione

> <PUBCHEM_IUPAC_CAS_NAME>
(4Z)-5-(4-tert-butylphenyl)-1-(6-fluoro-1,3-benzothiazol-2-yl)-4-[hydroxy-(4-methylphenyl)methylidene]pyrrolidine-2,3-dione

> <PUBCHEM_IUPAC_NAME>
(4Z)-5-(4-tert-butylphenyl)-1-(6-fluoro-1,3-benzothiazol-2-yl)-4-[hydroxy-(4-methylphenyl)methylidene]pyrrolidine-2,3-dione

> <PUBCHEM_IUPAC_SYSTEMATIC_NAME>
(4Z)-5-(4-tert-butylphenyl)-1-(6-fluoranyl-1,3-benzothiazol-2-yl)-4-[(4-methylphenyl)-oxidanyl-methylidene]pyrrolidine-2,3-dione

> <PUBCHEM_IUPAC_TRADITIONAL_NAME>
(4Z)-5-(4-tert-butylphenyl)-1-(6-fluoro-1,3-benzothiazol-2-yl)-4-[hydroxy(p-tolyl)methylene]pyrrolidine-2,3-quinone

> <PUBCHEM_IUPAC_INCHI>
InChI=1S/C29H25FN2O3S/c1-16-5-7-18(8-6-16)25(33)23-24(17-9-11-19(12-10-17)29(2,3)4)32(27(35)26(23)34)28-31-21-14-13-20(30)15-22(21)36-28/h5-15,24,33H,1-4H3/b25-23-

> <PUBCHEM_IUPAC_INCHIKEY>
FTBNTIIKMNGNMJ-BZZOAKBMSA-N

> <PUBCHEM_XLOGP3_AA>
7.4

> <PUBCHEM_EXACT_MASS>
500.157

> <PUBCHEM_MOLECULAR_FORMULA>
C29H25FN2O3S

> <PUBCHEM_MOLECULAR_WEIGHT>
500.588

> <PUBCHEM_OPENEYE_CAN_SMILES>
CC1=CC=C(C=C1)C(=C2C(N(C(=O)C2=O)C3=NC4=C(S3)C=C(C=C4)F)C5=CC=C(C=C5)C(C)(C)C)O

> <PUBCHEM_OPENEYE_ISO_SMILES>
CC1=CC=C(C=C1)/C(=C/2\C(N(C(=O)C2=O)C3=NC4=C(S3)C=C(C=C4)F)C5=CC=C(C=C5)C(C)(C)C)/O

> <PUBCHEM_CACTVS_TPSA>
98.7

> <PUBCHEM_MONOISOTOPIC_WEIGHT>
500.157

> <PUBCHEM_TOTAL_CHARGE>
0

> <PUBCHEM_HEAVY_ATOM_COUNT>
36

> <PUBCHEM_ATOM_DEF_STEREO_COUNT>
0

> <PUBCHEM_ATOM_UDEF_STEREO_COUNT>
1

> <PUBCHEM_BOND_DEF_STEREO_COUNT>
1

> <PUBCHEM_BOND_UDEF_STEREO_COUNT>
0

> <PUBCHEM_ISOTOPIC_ATOM_COUNT>
0

> <PUBCHEM_COMPONENT_COUNT>
1

> <PUBCHEM_CACTVS_TAUTO_COUNT>
11

> <PUBCHEM_COORDINATE_TYPE>
1
5
255

> <PUBCHEM_BONDANNOTATIONS>
1  22  8
1  25  8
10  13  8
10  14  8
11  15  8
11  16  8
13  15  8
14  16  8
24  27  8
24  28  8
25  26  8
25  29  8
26  30  8
27  31  8
28  32  8
29  34  8
30  35  8
31  33  8
32  33  8
34  35  8
7  22  8
7  26  8
8  10  3

$$$$
6275602
  -OEChem-11021604552D

 71 76  0     1  0  0  0  0  0999 V2000
    5.5045    2.4541    0.0000 S   0  0  0  0  0  0  0  0  0  0  0  0
    9.4440    1.5835    0.0000 O   0  0  0  0  0  0  0  0  0  0  0  0
    9.2166    4.7472    0.0000 O   0  0  0  0  0  0  0  0  0  0  0  0
    7.0886    5.1995    0.0000 O   0  0  0  0  0  0  0  0  0  0  0  0
    6.8328   -1.2358    0.0000 O   0  0  0  0  0  0  0  0  0  0  0  0
   12.9360    2.5489    0.0000 O   0  0  0  0  0  0  0  0  0  0  0  0
   12.9360    4.6182    0.0000 O   0  0  0  0  0  0  0  0  0  0  0  0
    6.9953    3.4199    0.0000 N   0  0  0  0  0  0  0  0  0  0  0  0
    5.3362    4.0547    0.0000 N   0  0  0  0  0  0  0  0  0  0  0  0
    7.6644    2.6768    0.0000 C   0  0  3  0  0  0  0  0  0  0  0  0
    8.5780    3.0835    0.0000 C   0  0  0  0  0  0  0  0  0  0  0  0
    7.4565    1.6986    0.0000 C   0  0  0  0  0  0  0  0  0  0  0  0
    8.4734    4.0780    0.0000 C   0  0  0  0  0  0  0  0  0  0  0  0
    7.4953    4.2860    0.0000 C   0  0  0  0  0  0  0  0  0  0  0  0
    9.4440    2.5835    0.0000 C   0  0  0  0  0  0  0  0  0  0  0  0
    6.0008    3.3154    0.0000 C   0  0  0  0  0  0  0  0  0  0  0  0
    6.5054    1.3896    0.0000 C   0  0  0  0  0  0  0  0  0  0  0  0
    8.1996    1.0295    0.0000 C   0  0  0  0  0  0  0  0  0  0  0  0
   10.3100    3.0835    0.0000 C   0  0  0  0  0  0  0  0  0  0  0  0
    6.2975    0.4115    0.0000 C   0  0  0  0  0  0  0  0  0  0  0  0
    7.9917    0.0514    0.0000 C   0  0  0  0  0  0  0  0  0  0  0  0
    7.0407   -0.2577    0.0000 C   0  0  0  0  0  0  0  0  0  0  0  0
    4.5316    2.6582    0.0000 C   0  0  0  0  0  0  0  0  0  0  0  0
    4.4271    3.6528    0.0000 C   0  0  0  0  0  0  0  0  0  0  0  0
   11.1760    2.5835    0.0000 C   0  0  0  0  0  0  0  0  0  0  0  0
   10.3100    4.0835    0.0000 C   0  0  0  0  0  0  0  0  0  0  0  0
   12.0421    3.0835    0.0000 C   0  0  0  0  0  0  0  0  0  0  0  0
    7.3680   -2.8831    0.0000 C   0  0  0  0  0  0  0  0  0  0  0  0
    7.5759   -1.9049    0.0000 C   0  0  0  0  0  0  0  0  0  0  0  0
   12.0421    4.0835    0.0000 C   0  0  0  0  0  0  0  0  0  0  0  0
    8.1112   -3.5522    0.0000 C   0  0  0  0  0  0  0  0  0  0  0  0
    3.7226    2.0704    0.0000 C   0  0  0  0  0  0  0  0  0  0  0  0
   11.1760    4.5835    0.0000 C   0  0  0  0  0  0  0  0  0  0  0  0
    3.5135    4.0595    0.0000 C   0  0  0  0  0  0  0  0  0  0  0  0
    2.8090    2.4772    0.0000 C   0  0  0  0  0  0  0  0  0  0  0  0
    7.9032   -4.5304    0.0000 C   0  0  0  0  0  0  0  0  0  0  0  0
    2.7045    3.4717    0.0000 C   0  0  0  0  0  0  0  0  0  0  0  0
   13.8421    3.0627    0.0000 C   0  0  0  0  0  0  0  0  0  0  0  0
   13.8421    4.1043    0.0000 C   0  0  0  0  0  0  0  0  0  0  0  0
    2.0000    1.8894    0.0000 C   0  0  0  0  0  0  0  0  0  0  0  0
    8.6464   -5.1995    0.0000 C   0  0  0  0  0  0  0  0  0  0  0  0
    7.0655    2.5163    0.0000 H   0  0  0  0  0  0  0  0  0  0  0  0
    6.0447    1.8045    0.0000 H   0  0  0  0  0  0  0  0  0  0  0  0
    8.7893    1.2211    0.0000 H   0  0  0  0  0  0  0  0  0  0  0  0
    5.7079    0.2199    0.0000 H   0  0  0  0  0  0  0  0  0  0  0  0
    8.4525   -0.3635    0.0000 H   0  0  0  0  0  0  0  0  0  0  0  0
   11.1760    1.9635    0.0000 H   0  0  0  0  0  0  0  0  0  0  0  0
    9.7731    4.3935    0.0000 H   0  0  0  0  0  0  0  0  0  0  0  0
    6.7932   -2.6508    0.0000 H   0  0  0  0  0  0  0  0  0  0  0  0
    7.0394   -3.4089    0.0000 H   0  0  0  0  0  0  0  0  0  0  0  0
    8.1508   -2.1372    0.0000 H   0  0  0  0  0  0  0  0  0  0  0  0
    7.9045   -1.3792    0.0000 H   0  0  0  0  0  0  0  0  0  0  0  0
    8.6860   -3.7845    0.0000 H   0  0  0  0  0  0  0  0  0  0  0  0
    8.4397   -3.0264    0.0000 H   0  0  0  0  0  0  0  0  0  0  0  0
    9.9809    1.2735    0.0000 H   0  0  0  0  0  0  0  0  0  0  0  0
    3.7874    1.4538    0.0000 H   0  0  0  0  0  0  0  0  0  0  0  0
   11.1760    5.2035    0.0000 H   0  0  0  0  0  0  0  0  0  0  0  0
    3.4487    4.6761    0.0000 H   0  0  0  0  0  0  0  0  0  0  0  0
    7.3284   -4.2981    0.0000 H   0  0  0  0  0  0  0  0  0  0  0  0
    7.5747   -5.0562    0.0000 H   0  0  0  0  0  0  0  0  0  0  0  0
    2.1381    3.7239    0.0000 H   0  0  0  0  0  0  0  0  0  0  0  0
   14.0511    2.4790    0.0000 H   0  0  0  0  0  0  0  0  0  0  0  0
   14.4529    3.1688    0.0000 H   0  0  0  0  0  0  0  0  0  0  0  0
   14.4529    3.9982    0.0000 H   0  0  0  0  0  0  0  0  0  0  0  0
   14.0511    4.6880    0.0000 H   0  0  0  0  0  0  0  0  0  0  0  0
    8.2315   -5.6602    0.0000 H   0  0  0  0  0  0  0  0  0  0  0  0
    9.1071   -5.6144    0.0000 H   0  0  0  0  0  0  0  0  0  0  0  0
    9.0612   -4.7387    0.0000 H   0  0  0  0  0  0  0  0  0  0  0  0
    1.6356    2.3910    0.0000 H   0  0  0  0  0  0  0  0  0  0  0  0
    1.4984    1.5250    0.0000 H   0  0  0  0  0  0  0  0  0  0  0  0
    2.3644    1.3878    0.0000 H   0  0  0  0  0  0  0  0  0  0  0  0
  1 16  1  0  0  0  0
  1 23  1  0  0  0  0
  2 15  1  0  0  0  0
  2 55  1  0  0  0  0
  3 13  2  0  0  0  0
  4 14  2  0  0  0  0
  5 22  1  0  0  0  0
  5 29  1  0  0  0  0
  6 27  1  0  0  0  0
  6 38  1  0  0  0  0
  7 30  1  0  0  0  0
  7 39  1  0  0  0  0
  8 10  1  0  0  0  0
  8 14  1  0  0  0  0
  8 16  1  0  0  0  0
  9 16  2  0  0  0  0
  9 24  1  0  0  0  0
 10 11  1  0  0  0  0
 10 12  1  0  0  0  0
 10 42  1  0  0  0  0
 11 13  1  0  0  0  0
 11 15  2  0  0  0  0
 12 17  2  0  0  0  0
 12 18  1  0  0  0  0
 13 14  1  0  0  0  0
 15 19  1  0  0  0  0
 17 20  1  0  0  0  0
 17 43  1  0  0  0  0
 18 21  2  0  0  0  0
 18 44  1  0  0  0  0
 19 25  2  0  0  0  0
 19 26  1  0  0  0  0
 20 22  2  0  0  0  0
 20 45  1  0  0  0  0
 21 22  1  0  0  0  0
 21 46  1  0  0  0  0
 23 24  2  0  0  0  0
 23 32  1  0  0  0  0
 24 34  1  0  0  0  0
 25 27  1  0  0  0  0
 25 47  1  0  0  0  0
 26 33  2  0  0  0  0
 26 48  1  0  0  0  0
 27 30  2  0  0  0  0
 28 29  1  0  0  0  0
 28 31  1  0  0  0  0
 28 49  1  0  0  0  0
 28 50  1  0  0  0  0
 29 51  1  0  0  0  0
 29 52  1  0  0  0  0
 30 33  1  0  0  0  0
 31 36  1  0  0  0  0
 31 53  1  0  0  0  0
 31 54  1  0  0  0  0
 32 35  2  0  0  0  0
 32 56  1  0  0  0  0
 33 57  1  0  0  0  0
 34 37  2  0  0  0  0
 34 58  1  0  0  0  0
 35 37  1  0  0  0  0
 35 40  1  0  0  0  0
 36 41  1  0  0  0  0
 36 59  1  0  0  0  0
 36 60  1  0  0  0  0
 37 61  1  0  0  0  0
 38 39  1  0  0  0  0
 38 62  1  0  0  0  0
 38 63  1  0  0  0  0
 39 64  1  0  0  0  0
 39 65  1  0  0  0  0
 40 69  1  0  0  0  0
 40 70  1  0  0  0  0
 40 71  1  0  0  0  0
 41 66  1  0  0  0  0
 41 67  1  0  0  0  0
 41 68  1  0  0  0  0
M  END
> <PUBCHEM_COMPOUND_CID>
6275602

> <PUBCHEM_COMPOUND_CANONICALIZED>
1

> <PUBCHEM_CACTVS_COMPLEXITY>
983

> <PUBCHEM_CACTVS_HBOND_ACCEPTOR>
8

> <PUBCHEM_CACTVS_HBOND_DONOR>
1

> <PUBCHEM_CACTVS_ROTATABLE_BOND>
8

> <PUBCHEM_CACTVS_SUBSKEYS>
AAADceB/OABAAAAAAAAAAAAAAAAAAWLAAAA0YMEAAAAAAFiR9AAAHgQACAAADCzh3gYz17MIFgisA6VydACD+KlhKjhJmD2+7NiNJrrkubuGeCrsxxPK+Sfc+L+OKAABgAAAQQBQAAMAAACCAAAAAAAAAA==

> <PUBCHEM_IUPAC_OPENEYE_NAME>
(4E)-4-[2,3-dihydro-1,4-benzodioxin-6-yl(hydroxy)methylene]-1-(6-methyl-1,3-benzothiazol-2-yl)-5-(4-pentoxyphenyl)pyrrolidine-2,3-dione

> <PUBCHEM_IUPAC_CAS_NAME>
(4E)-4-[2,3-dihydro-1,4-benzodioxin-6-yl(hydroxy)methylidene]-1-(6-methyl-1,3-benzothiazol-2-yl)-5-(4-pentoxyphenyl)pyrrolidine-2,3-dione

> <PUBCHEM_IUPAC_NAME>
(4E)-4-[2,3-dihydro-1,4-benzodioxin-6-yl(hydroxy)methylidene]-1-(6-methyl-1,3-benzothiazol-2-yl)-5-(4-pentoxyphenyl)pyrrolidine-2,3-dione

> <PUBCHEM_IUPAC_SYSTEMATIC_NAME>
(4E)-4-[2,3-dihydro-1,4-benzodioxin-6-yl(oxidanyl)methylidene]-1-(6-methyl-1,3-benzothiazol-2-yl)-5-(4-pentoxyphenyl)pyrrolidine-2,3-dione

> <PUBCHEM_IUPAC_TRADITIONAL_NAME>
(4E)-5-(4-amoxyphenyl)-4-[2,3-dihydro-1,4-benzodioxin-6-yl(hydroxy)methylene]-1-(6-methyl-1,3-benzothiazol-2-yl)pyrrolidine-2,3-quinone

> <PUBCHEM_IUPAC_INCHI>
InChI=1S/C32H30N2O6S/c1-3-4-5-14-38-22-10-7-20(8-11-22)28-27(29(35)21-9-13-24-25(18-21)40-16-15-39-24)30(36)31(37)34(28)32-33-23-12-6-19(2)17-26(23)41-32/h6-13,17-18,28,35H,3-5,14-16H2,1-2H3/b29-27+

> <PUBCHEM_IUPAC_INCHIKEY>
UUZQQXWUYSAPSY-ORIPQNMZSA-N

> <PUBCHEM_XLOGP3_AA>
7.1

> <PUBCHEM_EXACT_MASS>
570.182

> <PUBCHEM_MOLECULAR_FORMULA>
C32H30N2O6S

> <PUBCHEM_MOLECULAR_WEIGHT>
570.66

> <PUBCHEM_OPENEYE_CAN_SMILES>
CCCCCOC1=CC=C(C=C1)C2C(=C(C3=CC4=C(C=C3)OCCO4)O)C(=O)C(=O)N2C5=NC6=C(S5)C=C(C=C6)C

> <PUBCHEM_OPENEYE_ISO_SMILES>
CCCCCOC1=CC=C(C=C1)C2/C(=C(/C3=CC4=C(C=C3)OCCO4)\O)/C(=O)C(=O)N2C5=NC6=C(S5)C=C(C=C6)C

> <PUBCHEM_CACTVS_TPSA>
126

> <PUBCHEM_MONOISOTOPIC_WEIGHT>
570.182

> <PUBCHEM_TOTAL_CHARGE>
0

> <PUBCHEM_HEAVY_ATOM_COUNT>
41

> <PUBCHEM_ATOM_DEF_STEREO_COUNT>
0

> <PUBCHEM_ATOM_UDEF_STEREO_COUNT>
1

> <PUBCHEM_BOND_DEF_STEREO_COUNT>
1

> <PUBCHEM_BOND_UDEF_STEREO_COUNT>
0

> <PUBCHEM_ISOTOPIC_ATOM_COUNT>
0

> <PUBCHEM_COMPONENT_COUNT>
1

> <PUBCHEM_CACTVS_TAUTO_COUNT>
3

> <PUBCHEM_COORDINATE_TYPE>
1
5
255

> <PUBCHEM_BONDANNOTATIONS>
1  16  8
1  23  8
10  12  3
12  17  8
12  18  8
17  20  8
18  21  8
19  25  8
19  26  8
20  22  8
21  22  8
23  24  8
23  32  8
24  34  8
25  27  8
26  33  8
27  30  8
30  33  8
32  35  8
34  37  8
35  37  8
9  16  8
9  24  8

$$$$
118729150
  -OEChem-11021604552D

 61 65  0     1  0  0  0  0  0999 V2000
   10.4435   -3.4845    0.0000 Cl  0  0  0  0  0  0  0  0  0  0  0  0
    5.5443    0.6797    0.0000 S   0  0  0  0  0  0  0  0  0  0  0  0
    7.4067    3.2446    0.0000 O   0  0  0  0  0  0  0  0  0  0  0  0
    9.4758    2.5723    0.0000 O   0  0  0  0  0  0  0  0  0  0  0  0
   10.3893    0.8034    0.0000 O   0  0  0  0  0  0  0  0  0  0  0  0
    7.1279    1.4845    0.0000 N   0  0  0  0  0  0  0  0  0  0  0  0
    5.5443    2.2892    0.0000 N   0  0  0  0  0  0  0  0  0  0  0  0
    7.7157    0.6755    0.0000 C   0  0  3  0  0  0  0  0  0  0  0  0
    8.6668    0.9845    0.0000 C   0  0  0  0  0  0  0  0  0  0  0  0
    7.1001   -0.1126    0.0000 C   0  0  0  0  0  0  0  0  0  0  0  0
    7.7157    2.2935    0.0000 C   0  0  0  0  0  0  0  0  0  0  0  0
    8.6668    1.9845    0.0000 C   0  0  0  0  0  0  0  0  0  0  0  0
    6.1279    1.4845    0.0000 C   0  0  0  0  0  0  0  0  0  0  0  0
    7.4746   -1.0397    0.0000 C   0  0  0  0  0  0  0  0  0  0  0  0
    6.1098    0.0266    0.0000 C   0  0  0  0  0  0  0  0  0  0  0  0
    5.8688   -1.6886    0.0000 C   0  0  0  0  0  0  0  0  0  0  0  0
    9.4758    0.3967    0.0000 C   0  0  0  0  0  0  0  0  0  0  0  0
    5.2531   -2.4766    0.0000 C   0  0  0  0  0  0  0  0  0  0  0  0
    6.8590   -1.8278    0.0000 C   0  0  0  0  0  0  0  0  0  0  0  0
    5.4941   -0.7614    0.0000 C   0  0  0  0  0  0  0  0  0  0  0  0
    4.5981    1.9845    0.0000 C   0  0  0  0  0  0  0  0  0  0  0  0
    4.5981    0.9845    0.0000 C   0  0  0  0  0  0  0  0  0  0  0  0
    9.7178   -0.5736    0.0000 C   0  0  0  0  0  0  0  0  0  0  0  0
    3.7320    2.4845    0.0000 C   0  0  0  0  0  0  0  0  0  0  0  0
    4.2628   -2.3374    0.0000 C   0  0  0  0  0  0  0  0  0  0  0  0
    5.6277   -3.4038    0.0000 C   0  0  0  0  0  0  0  0  0  0  0  0
    3.7320    0.4845    0.0000 C   0  0  0  0  0  0  0  0  0  0  0  0
    2.8660    0.9845    0.0000 C   0  0  0  0  0  0  0  0  0  0  0  0
    2.8660    1.9845    0.0000 C   0  0  0  0  0  0  0  0  0  0  0  0
    8.9984   -1.2683    0.0000 C   0  0  0  0  0  0  0  0  0  0  0  0
   10.6789   -0.8492    0.0000 C   0  0  0  0  0  0  0  0  0  0  0  0
    3.7320    3.4845    0.0000 C   0  0  0  0  0  0  0  0  0  0  0  0
    2.0000    0.4845    0.0000 C   0  0  0  0  0  0  0  0  0  0  0  0
    9.2403   -2.2386    0.0000 C   0  0  0  0  0  0  0  0  0  0  0  0
   10.9209   -1.8195    0.0000 C   0  0  0  0  0  0  0  0  0  0  0  0
   10.2016   -2.5142    0.0000 C   0  0  0  0  0  0  0  0  0  0  0  0
    8.0713    0.1676    0.0000 H   0  0  0  0  0  0  0  0  0  0  0  0
    8.0886   -1.1260    0.0000 H   0  0  0  0  0  0  0  0  0  0  0  0
    5.8775    0.6015    0.0000 H   0  0  0  0  0  0  0  0  0  0  0  0
    4.8714   -2.9652    0.0000 H   0  0  0  0  0  0  0  0  0  0  0  0
    7.0912   -2.4026    0.0000 H   0  0  0  0  0  0  0  0  0  0  0  0
    4.8801   -0.6751    0.0000 H   0  0  0  0  0  0  0  0  0  0  0  0
    4.3491   -1.7235    0.0000 H   0  0  0  0  0  0  0  0  0  0  0  0
    3.6488   -2.2512    0.0000 H   0  0  0  0  0  0  0  0  0  0  0  0
    4.1765   -2.9514    0.0000 H   0  0  0  0  0  0  0  0  0  0  0  0
    5.0529   -3.6361    0.0000 H   0  0  0  0  0  0  0  0  0  0  0  0
    5.8600   -3.9787    0.0000 H   0  0  0  0  0  0  0  0  0  0  0  0
    6.2026   -3.1715    0.0000 H   0  0  0  0  0  0  0  0  0  0  0  0
    3.7320   -0.1355    0.0000 H   0  0  0  0  0  0  0  0  0  0  0  0
    2.3291    2.2945    0.0000 H   0  0  0  0  0  0  0  0  0  0  0  0
   10.8909    0.4390    0.0000 H   0  0  0  0  0  0  0  0  0  0  0  0
    8.4024   -1.0974    0.0000 H   0  0  0  0  0  0  0  0  0  0  0  0
   11.1249   -0.4186    0.0000 H   0  0  0  0  0  0  0  0  0  0  0  0
    4.3520    3.4845    0.0000 H   0  0  0  0  0  0  0  0  0  0  0  0
    3.7320    4.1045    0.0000 H   0  0  0  0  0  0  0  0  0  0  0  0
    3.1120    3.4845    0.0000 H   0  0  0  0  0  0  0  0  0  0  0  0
    1.6900    1.0214    0.0000 H   0  0  0  0  0  0  0  0  0  0  0  0
    1.4631    0.1745    0.0000 H   0  0  0  0  0  0  0  0  0  0  0  0
    2.3100   -0.0525    0.0000 H   0  0  0  0  0  0  0  0  0  0  0  0
    8.7943   -2.6693    0.0000 H   0  0  0  0  0  0  0  0  0  0  0  0
   11.5169   -1.9904    0.0000 H   0  0  0  0  0  0  0  0  0  0  0  0
  1 36  1  0  0  0  0
  2 13  1  0  0  0  0
  2 22  1  0  0  0  0
  3 11  2  0  0  0  0
  4 12  2  0  0  0  0
  5 17  1  0  0  0  0
  5 51  1  0  0  0  0
  6  8  1  0  0  0  0
  6 11  1  0  0  0  0
  6 13  1  0  0  0  0
  7 13  2  0  0  0  0
  7 21  1  0  0  0  0
  8  9  1  0  0  0  0
  8 10  1  0  0  0  0
  8 37  1  0  0  0  0
  9 12  1  0  0  0  0
  9 17  2  0  0  0  0
 10 14  2  0  0  0  0
 10 15  1  0  0  0  0
 11 12  1  0  0  0  0
 14 19  1  0  0  0  0
 14 38  1  0  0  0  0
 15 20  2  0  0  0  0
 15 39  1  0  0  0  0
 16 18  1  0  0  0  0
 16 19  2  0  0  0  0
 16 20  1  0  0  0  0
 17 23  1  0  0  0  0
 18 25  1  0  0  0  0
 18 26  1  0  0  0  0
 18 40  1  0  0  0  0
 19 41  1  0  0  0  0
 20 42  1  0  0  0  0
 21 22  1  0  0  0  0
 21 24  2  0  0  0  0
 22 27  2  0  0  0  0
 23 30  2  0  0  0  0
 23 31  1  0  0  0  0
 24 29  1  0  0  0  0
 24 32  1  0  0  0  0
 25 43  1  0  0  0  0
 25 44  1  0  0  0  0
 25 45  1  0  0  0  0
 26 46  1  0  0  0  0
 26 47  1  0  0  0  0
 26 48  1  0  0  0  0
 27 28  1  0  0  0  0
 27 49  1  0  0  0  0
 28 29  2  0  0  0  0
 28 33  1  0  0  0  0
 29 50  1  0  0  0  0
 30 34  1  0  0  0  0
 30 52  1  0  0  0  0
 31 35  2  0  0  0  0
 31 53  1  0  0  0  0
 32 54  1  0  0  0  0
 32 55  1  0  0  0  0
 32 56  1  0  0  0  0
 33 57  1  0  0  0  0
 33 58  1  0  0  0  0
 33 59  1  0  0  0  0
 34 36  2  0  0  0  0
 34 60  1  0  0  0  0
 35 36  1  0  0  0  0
 35 61  1  0  0  0  0
M  END
> <PUBCHEM_COMPOUND_CID>
118729150

> <PUBCHEM_COMPOUND_CANONICALIZED>
1

> <PUBCHEM_CACTVS_COMPLEXITY>
878

> <PUBCHEM_CACTVS_HBOND_ACCEPTOR>
5

> <PUBCHEM_CACTVS_HBOND_DONOR>
1

> <PUBCHEM_CACTVS_ROTATABLE_BOND>
4

> <PUBCHEM_CACTVS_SUBSKEYS>
AAADceB7MABEAAAAAAAAAAAAAAAAAWLAAAAwYMAAAAAAAFgB9AAAHgYACAAADS7B3iQz0bMIEgisA6VydACD8KlhLThJmD2oTtiIJrrhm7GEcAhsxwPI2SecyOCOzAACgAACAQCYAAUAAAQCAAAAAAAAAA==

> <PUBCHEM_IUPAC_OPENEYE_NAME>
(4Z)-4-[(4-chlorophenyl)-hydroxy-methylene]-1-(4,6-dimethyl-1,3-benzothiazol-2-yl)-5-(4-isopropylphenyl)pyrrolidine-2,3-dione

> <PUBCHEM_IUPAC_CAS_NAME>
(4Z)-4-[(4-chlorophenyl)-hydroxymethylidene]-1-(4,6-dimethyl-1,3-benzothiazol-2-yl)-5-(4-propan-2-ylphenyl)pyrrolidine-2,3-dione

> <PUBCHEM_IUPAC_NAME>
(4Z)-4-[(4-chlorophenyl)-hydroxymethylidene]-1-(4,6-dimethyl-1,3-benzothiazol-2-yl)-5-(4-propan-2-ylphenyl)pyrrolidine-2,3-dione

> <PUBCHEM_IUPAC_SYSTEMATIC_NAME>
(4Z)-4-[(4-chlorophenyl)-oxidanyl-methylidene]-1-(4,6-dimethyl-1,3-benzothiazol-2-yl)-5-(4-propan-2-ylphenyl)pyrrolidine-2,3-dione

> <PUBCHEM_IUPAC_TRADITIONAL_NAME>
(4Z)-4-[(4-chlorophenyl)-hydroxy-methylene]-1-(4,6-dimethyl-1,3-benzothiazol-2-yl)-5-p-cumenyl-pyrrolidine-2,3-quinone

> <PUBCHEM_IUPAC_INCHI>
InChI=1S/C29H25ClN2O3S/c1-15(2)18-5-7-19(8-6-18)25-23(26(33)20-9-11-21(30)12-10-20)27(34)28(35)32(25)29-31-24-17(4)13-16(3)14-22(24)36-29/h5-15,25,33H,1-4H3/b26-23-

> <PUBCHEM_IUPAC_INCHIKEY>
DJPOTYNMWIMMHG-RWEWTDSWSA-N

> <PUBCHEM_XLOGP3_AA>
7.8

> <PUBCHEM_EXACT_MASS>
516.127

> <PUBCHEM_MOLECULAR_FORMULA>
C29H25ClN2O3S

> <PUBCHEM_MOLECULAR_WEIGHT>
517.04

> <PUBCHEM_OPENEYE_CAN_SMILES>
CC1=CC(=C2C(=C1)SC(=N2)N3C(C(=C(C4=CC=C(C=C4)Cl)O)C(=O)C3=O)C5=CC=C(C=C5)C(C)C)C

> <PUBCHEM_OPENEYE_ISO_SMILES>
CC1=CC(=C2C(=C1)SC(=N2)N3C(/C(=C(\C4=CC=C(C=C4)Cl)/O)/C(=O)C3=O)C5=CC=C(C=C5)C(C)C)C

> <PUBCHEM_CACTVS_TPSA>
98.7

> <PUBCHEM_MONOISOTOPIC_WEIGHT>
516.127

> <PUBCHEM_TOTAL_CHARGE>
0

> <PUBCHEM_HEAVY_ATOM_COUNT>
36

> <PUBCHEM_ATOM_DEF_STEREO_COUNT>
0

> <PUBCHEM_ATOM_UDEF_STEREO_COUNT>
1

> <PUBCHEM_BOND_DEF_STEREO_COUNT>
1

> <PUBCHEM_BOND_UDEF_STEREO_COUNT>
0

> <PUBCHEM_ISOTOPIC_ATOM_COUNT>
0

> <PUBCHEM_COMPONENT_COUNT>
1

> <PUBCHEM_CACTVS_TAUTO_COUNT>
36

> <PUBCHEM_COORDINATE_TYPE>
1
5
255

> <PUBCHEM_BONDANNOTATIONS>
10  14  8
10  15  8
14  19  8
15  20  8
16  19  8
16  20  8
2  13  8
2  22  8
21  22  8
21  24  8
22  27  8
23  30  8
23  31  8
24  29  8
27  28  8
28  29  8
30  34  8
31  35  8
34  36  8
35  36  8
7  13  8
7  21  8
8  10  3

$$$$
3384409
  -OEChem-11021604552D

 56 60  0     1  0  0  0  0  0999 V2000
    5.5443    0.0905    0.0000 S   0  0  0  0  0  0  0  0  0  0  0  0
    9.4758    1.9830    0.0000 O   0  0  0  0  0  0  0  0  0  0  0  0
    7.4067    2.6553    0.0000 O   0  0  0  0  0  0  0  0  0  0  0  0
    9.0269   -1.9170    0.0000 O   0  0  0  0  0  0  0  0  0  0  0  0
   10.5972    1.1923    0.0000 O   0  0  0  0  0  0  0  0  0  0  0  0
    9.8826   -1.1061    0.0000 O   0  0  0  0  0  0  0  0  0  0  0  0
    7.1279    0.8952    0.0000 N   0  0  0  0  0  0  0  0  0  0  0  0
    5.5443    1.6999    0.0000 N   0  0  0  0  0  0  0  0  0  0  0  0
    7.7157    0.0862    0.0000 C   0  0  3  0  0  0  0  0  0  0  0  0
    8.6668    0.3952    0.0000 C   0  0  0  0  0  0  0  0  0  0  0  0
    7.4067   -0.8649    0.0000 C   0  0  0  0  0  0  0  0  0  0  0  0
    8.6668    1.3952    0.0000 C   0  0  0  0  0  0  0  0  0  0  0  0
    7.7157    1.7042    0.0000 C   0  0  0  0  0  0  0  0  0  0  0  0
    6.1279    0.8952    0.0000 C   0  0  0  0  0  0  0  0  0  0  0  0
    9.4758   -0.1926    0.0000 C   0  0  0  0  0  0  0  0  0  0  0  0
    8.0758   -1.6080    0.0000 C   0  0  0  0  0  0  0  0  0  0  0  0
    6.4285   -1.0728    0.0000 C   0  0  0  0  0  0  0  0  0  0  0  0
    4.5981    1.3952    0.0000 C   0  0  0  0  0  0  0  0  0  0  0  0
    4.5981    0.3952    0.0000 C   0  0  0  0  0  0  0  0  0  0  0  0
    3.7320    1.8952    0.0000 C   0  0  0  0  0  0  0  0  0  0  0  0
   10.3893    0.2141    0.0000 C   0  0  0  0  0  0  0  0  0  0  0  0
    7.7668   -2.5591    0.0000 C   0  0  0  0  0  0  0  0  0  0  0  0
    6.1195   -2.0238    0.0000 C   0  0  0  0  0  0  0  0  0  0  0  0
    3.7320   -0.1048    0.0000 C   0  0  0  0  0  0  0  0  0  0  0  0
    2.8660    0.3952    0.0000 C   0  0  0  0  0  0  0  0  0  0  0  0
    6.7886   -2.7670    0.0000 C   0  0  0  0  0  0  0  0  0  0  0  0
    2.8660    1.3952    0.0000 C   0  0  0  0  0  0  0  0  0  0  0  0
   11.2553   -0.2859    0.0000 C   0  0  0  0  0  0  0  0  0  0  0  0
    3.7320    2.8952    0.0000 C   0  0  0  0  0  0  0  0  0  0  0  0
   11.5917    1.2968    0.0000 C   0  0  0  0  0  0  0  0  0  0  0  0
    2.0000   -0.1048    0.0000 C   0  0  0  0  0  0  0  0  0  0  0  0
   11.9985    0.3833    0.0000 C   0  0  0  0  0  0  0  0  0  0  0  0
    9.2348   -2.8952    0.0000 C   0  0  0  0  0  0  0  0  0  0  0  0
   12.0917    2.1628    0.0000 C   0  0  0  0  0  0  0  0  0  0  0  0
    7.1033   -0.0108    0.0000 H   0  0  0  0  0  0  0  0  0  0  0  0
    6.0137   -0.6120    0.0000 H   0  0  0  0  0  0  0  0  0  0  0  0
    8.1816   -3.0198    0.0000 H   0  0  0  0  0  0  0  0  0  0  0  0
    5.5131   -2.1528    0.0000 H   0  0  0  0  0  0  0  0  0  0  0  0
    3.7320   -0.7248    0.0000 H   0  0  0  0  0  0  0  0  0  0  0  0
    9.4110    2.5996    0.0000 H   0  0  0  0  0  0  0  0  0  0  0  0
    6.5970   -3.3566    0.0000 H   0  0  0  0  0  0  0  0  0  0  0  0
    2.3291    1.7052    0.0000 H   0  0  0  0  0  0  0  0  0  0  0  0
   11.3201   -0.9025    0.0000 H   0  0  0  0  0  0  0  0  0  0  0  0
    4.3520    2.8952    0.0000 H   0  0  0  0  0  0  0  0  0  0  0  0
    3.7320    3.5152    0.0000 H   0  0  0  0  0  0  0  0  0  0  0  0
    3.1120    2.8952    0.0000 H   0  0  0  0  0  0  0  0  0  0  0  0
    1.6900    0.4321    0.0000 H   0  0  0  0  0  0  0  0  0  0  0  0
    1.4631   -0.4148    0.0000 H   0  0  0  0  0  0  0  0  0  0  0  0
    2.3100   -0.6417    0.0000 H   0  0  0  0  0  0  0  0  0  0  0  0
   12.6049    0.2544    0.0000 H   0  0  0  0  0  0  0  0  0  0  0  0
    8.6283   -3.0241    0.0000 H   0  0  0  0  0  0  0  0  0  0  0  0
    9.3637   -3.5016    0.0000 H   0  0  0  0  0  0  0  0  0  0  0  0
    9.8412   -2.7663    0.0000 H   0  0  0  0  0  0  0  0  0  0  0  0
   12.6287    1.8528    0.0000 H   0  0  0  0  0  0  0  0  0  0  0  0
   12.4017    2.6998    0.0000 H   0  0  0  0  0  0  0  0  0  0  0  0
   11.5548    2.4728    0.0000 H   0  0  0  0  0  0  0  0  0  0  0  0
  1 14  1  0  0  0  0
  1 19  1  0  0  0  0
  2 12  1  0  0  0  0
  2 40  1  0  0  0  0
  3 13  2  0  0  0  0
  4 16  1  0  0  0  0
  4 33  1  0  0  0  0
  5 21  1  0  0  0  0
  5 30  1  0  0  0  0
  6 15  2  0  0  0  0
  7  9  1  0  0  0  0
  7 13  1  0  0  0  0
  7 14  1  0  0  0  0
  8 14  2  0  0  0  0
  8 18  1  0  0  0  0
  9 10  1  0  0  0  0
  9 11  1  0  0  0  0
  9 35  1  0  0  0  0
 10 12  2  0  0  0  0
 10 15  1  0  0  0  0
 11 16  1  0  0  0  0
 11 17  2  0  0  0  0
 12 13  1  0  0  0  0
 15 21  1  0  0  0  0
 16 22  2  0  0  0  0
 17 23  1  0  0  0  0
 17 36  1  0  0  0  0
 18 19  1  0  0  0  0
 18 20  2  0  0  0  0
 19 24  2  0  0  0  0
 20 27  1  0  0  0  0
 20 29  1  0  0  0  0
 21 28  2  0  0  0  0
 22 26  1  0  0  0  0
 22 37  1  0  0  0  0
 23 26  2  0  0  0  0
 23 38  1  0  0  0  0
 24 25  1  0  0  0  0
 24 39  1  0  0  0  0
 25 27  2  0  0  0  0
 25 31  1  0  0  0  0
 26 41  1  0  0  0  0
 27 42  1  0  0  0  0
 28 32  1  0  0  0  0
 28 43  1  0  0  0  0
 29 44  1  0  0  0  0
 29 45  1  0  0  0  0
 29 46  1  0  0  0  0
 30 32  2  0  0  0  0
 30 34  1  0  0  0  0
 31 47  1  0  0  0  0
 31 48  1  0  0  0  0
 31 49  1  0  0  0  0
 32 50  1  0  0  0  0
 33 51  1  0  0  0  0
 33 52  1  0  0  0  0
 33 53  1  0  0  0  0
 34 54  1  0  0  0  0
 34 55  1  0  0  0  0
 34 56  1  0  0  0  0
M  END
> <PUBCHEM_COMPOUND_CID>
3384409

> <PUBCHEM_COMPOUND_CANONICALIZED>
1

> <PUBCHEM_CACTVS_COMPLEXITY>
849

> <PUBCHEM_CACTVS_HBOND_ACCEPTOR>
7

> <PUBCHEM_CACTVS_HBOND_DONOR>
1

> <PUBCHEM_CACTVS_ROTATABLE_BOND>
5

> <PUBCHEM_CACTVS_SUBSKEYS>
AAADceB7OABAAAAAAAAAAAAAAAAAAWJEAAAwYAAAAAAAAFgB/AAAHgQACAAADCzB3gYz17MIFkisA6VydAKD+KllKDhJmD1uTNiOJrrkvZ+GOSjuxxPY6ae8zvDuCAACgAAKAQAQAAUAABQCAAAAAAAAAA==

> <PUBCHEM_IUPAC_OPENEYE_NAME>
1-(4,6-dimethyl-1,3-benzothiazol-2-yl)-4-hydroxy-2-(2-methoxyphenyl)-3-(5-methylfuran-2-carbonyl)-2H-pyrrol-5-one

> <PUBCHEM_IUPAC_CAS_NAME>
1-(4,6-dimethyl-1,3-benzothiazol-2-yl)-4-hydroxy-2-(2-methoxyphenyl)-3-[(5-methyl-2-furanyl)-oxomethyl]-2H-pyrrol-5-one

> <PUBCHEM_IUPAC_NAME>
1-(4,6-dimethyl-1,3-benzothiazol-2-yl)-4-hydroxy-2-(2-methoxyphenyl)-3-(5-methylfuran-2-carbonyl)-2H-pyrrol-5-one

> <PUBCHEM_IUPAC_SYSTEMATIC_NAME>
1-(4,6-dimethyl-1,3-benzothiazol-2-yl)-2-(2-methoxyphenyl)-3-(5-methylfuran-2-yl)carbonyl-4-oxidanyl-2H-pyrrol-5-one

> <PUBCHEM_IUPAC_TRADITIONAL_NAME>
1-(4,6-dimethyl-1,3-benzothiazol-2-yl)-3-hydroxy-5-(2-methoxyphenyl)-4-(5-methyl-2-furoyl)-3-pyrrolin-2-one

> <PUBCHEM_IUPAC_INCHI>
InChI=1S/C26H22N2O5S/c1-13-11-14(2)21-19(12-13)34-26(27-21)28-22(16-7-5-6-8-17(16)32-4)20(24(30)25(28)31)23(29)18-10-9-15(3)33-18/h5-12,22,30H,1-4H3

> <PUBCHEM_IUPAC_INCHIKEY>
IRENLNCWNBVNGB-UHFFFAOYSA-N

> <PUBCHEM_XLOGP3_AA>
5.8

> <PUBCHEM_EXACT_MASS>
474.125

> <PUBCHEM_MOLECULAR_FORMULA>
C26H22N2O5S

> <PUBCHEM_MOLECULAR_WEIGHT>
474.531

> <PUBCHEM_OPENEYE_CAN_SMILES>
CC1=CC=C(O1)C(=O)C2=C(C(=O)N(C2C3=CC=CC=C3OC)C4=NC5=C(C=C(C=C5S4)C)C)O

> <PUBCHEM_OPENEYE_ISO_SMILES>
CC1=CC=C(O1)C(=O)C2=C(C(=O)N(C2C3=CC=CC=C3OC)C4=NC5=C(C=C(C=C5S4)C)C)O

> <PUBCHEM_CACTVS_TPSA>
121

> <PUBCHEM_MONOISOTOPIC_WEIGHT>
474.125

> <PUBCHEM_TOTAL_CHARGE>
0

> <PUBCHEM_HEAVY_ATOM_COUNT>
34

> <PUBCHEM_ATOM_DEF_STEREO_COUNT>
0

> <PUBCHEM_ATOM_UDEF_STEREO_COUNT>
1

> <PUBCHEM_BOND_DEF_STEREO_COUNT>
0

> <PUBCHEM_BOND_UDEF_STEREO_COUNT>
0

> <PUBCHEM_ISOTOPIC_ATOM_COUNT>
0

> <PUBCHEM_COMPONENT_COUNT>
1

> <PUBCHEM_CACTVS_TAUTO_COUNT>
11

> <PUBCHEM_COORDINATE_TYPE>
1
5
255

> <PUBCHEM_BONDANNOTATIONS>
1  14  8
1  19  8
11  16  8
11  17  8
16  22  8
17  23  8
18  19  8
18  20  8
19  24  8
20  27  8
21  28  8
22  26  8
23  26  8
24  25  8
25  27  8
28  32  8
30  32  8
5  21  8
5  30  8
8  14  8
8  18  8
9  11  3

$$$$
3408837
  -OEChem-11021604552D

 43 47  0     1  0  0  0  0  0999 V2000
    5.1414   -2.1759    0.0000 Cl  0  0  0  0  0  0  0  0  0  0  0  0
    5.5443    1.7558    0.0000 S   0  0  0  0  0  0  0  0  0  0  0  0
   10.5972    1.2482    0.0000 S   0  0  0  0  0  0  0  0  0  0  0  0
    2.0000    1.9511    0.0000 F   0  0  0  0  0  0  0  0  0  0  0  0
    9.4758    2.0388    0.0000 O   0  0  0  0  0  0  0  0  0  0  0  0
    7.4067    2.7111    0.0000 O   0  0  0  0  0  0  0  0  0  0  0  0
    9.3712   -1.1312    0.0000 O   0  0  0  0  0  0  0  0  0  0  0  0
    7.1279    0.9511    0.0000 N   0  0  0  0  0  0  0  0  0  0  0  0
    5.5443    0.1463    0.0000 N   0  0  0  0  0  0  0  0  0  0  0  0
    7.7157    0.1420    0.0000 C   0  0  3  0  0  0  0  0  0  0  0  0
    8.6668    0.4511    0.0000 C   0  0  0  0  0  0  0  0  0  0  0  0
    7.4067   -0.8090    0.0000 C   0  0  0  0  0  0  0  0  0  0  0  0
    8.6668    1.4511    0.0000 C   0  0  0  0  0  0  0  0  0  0  0  0
    7.7157    1.7601    0.0000 C   0  0  0  0  0  0  0  0  0  0  0  0
    6.1279    0.9511    0.0000 C   0  0  0  0  0  0  0  0  0  0  0  0
    9.4758   -0.1367    0.0000 C   0  0  0  0  0  0  0  0  0  0  0  0
    6.4285   -1.0169    0.0000 C   0  0  0  0  0  0  0  0  0  0  0  0
    8.0758   -1.5522    0.0000 C   0  0  0  0  0  0  0  0  0  0  0  0
    4.5981    1.4511    0.0000 C   0  0  0  0  0  0  0  0  0  0  0  0
    4.5981    0.4511    0.0000 C   0  0  0  0  0  0  0  0  0  0  0  0
   10.3893    0.2700    0.0000 C   0  0  0  0  0  0  0  0  0  0  0  0
    6.1195   -1.9680    0.0000 C   0  0  0  0  0  0  0  0  0  0  0  0
    7.7668   -2.5032    0.0000 C   0  0  0  0  0  0  0  0  0  0  0  0
    6.7886   -2.7111    0.0000 C   0  0  0  0  0  0  0  0  0  0  0  0
    3.7320    1.9511    0.0000 C   0  0  0  0  0  0  0  0  0  0  0  0
    3.7320   -0.0489    0.0000 C   0  0  0  0  0  0  0  0  0  0  0  0
   11.2553   -0.2300    0.0000 C   0  0  0  0  0  0  0  0  0  0  0  0
    2.8660    1.4511    0.0000 C   0  0  0  0  0  0  0  0  0  0  0  0
    2.8660    0.4511    0.0000 C   0  0  0  0  0  0  0  0  0  0  0  0
   11.9985    0.4391    0.0000 C   0  0  0  0  0  0  0  0  0  0  0  0
   11.5917    1.3527    0.0000 C   0  0  0  0  0  0  0  0  0  0  0  0
    7.1033    0.0451    0.0000 H   0  0  0  0  0  0  0  0  0  0  0  0
    6.0137   -0.5562    0.0000 H   0  0  0  0  0  0  0  0  0  0  0  0
    8.6822   -1.4233    0.0000 H   0  0  0  0  0  0  0  0  0  0  0  0
    8.1816   -2.9640    0.0000 H   0  0  0  0  0  0  0  0  0  0  0  0
    9.4110    2.6554    0.0000 H   0  0  0  0  0  0  0  0  0  0  0  0
    6.5970   -3.3008    0.0000 H   0  0  0  0  0  0  0  0  0  0  0  0
    3.7320    2.5711    0.0000 H   0  0  0  0  0  0  0  0  0  0  0  0
    3.7320   -0.6689    0.0000 H   0  0  0  0  0  0  0  0  0  0  0  0
   11.3201   -0.8466    0.0000 H   0  0  0  0  0  0  0  0  0  0  0  0
    2.3291    0.1411    0.0000 H   0  0  0  0  0  0  0  0  0  0  0  0
   12.6049    0.3102    0.0000 H   0  0  0  0  0  0  0  0  0  0  0  0
   11.9017    1.8896    0.0000 H   0  0  0  0  0  0  0  0  0  0  0  0
  1 22  1  0  0  0  0
  2 15  1  0  0  0  0
  2 19  1  0  0  0  0
  3 21  1  0  0  0  0
  3 31  1  0  0  0  0
  4 28  1  0  0  0  0
  5 13  1  0  0  0  0
  5 36  1  0  0  0  0
  6 14  2  0  0  0  0
  7 16  2  0  0  0  0
  8 10  1  0  0  0  0
  8 14  1  0  0  0  0
  8 15  1  0  0  0  0
  9 15  2  0  0  0  0
  9 20  1  0  0  0  0
 10 11  1  0  0  0  0
 10 12  1  0  0  0  0
 10 32  1  0  0  0  0
 11 13  2  0  0  0  0
 11 16  1  0  0  0  0
 12 17  2  0  0  0  0
 12 18  1  0  0  0  0
 13 14  1  0  0  0  0
 16 21  1  0  0  0  0
 17 22  1  0  0  0  0
 17 33  1  0  0  0  0
 18 23  2  0  0  0  0
 18 34  1  0  0  0  0
 19 20  2  0  0  0  0
 19 25  1  0  0  0  0
 20 26  1  0  0  0  0
 21 27  2  0  0  0  0
 22 24  2  0  0  0  0
 23 24  1  0  0  0  0
 23 35  1  0  0  0  0
 24 37  1  0  0  0  0
 25 28  2  0  0  0  0
 25 38  1  0  0  0  0
 26 29  2  0  0  0  0
 26 39  1  0  0  0  0
 27 30  1  0  0  0  0
 27 40  1  0  0  0  0
 28 29  1  0  0  0  0
 29 41  1  0  0  0  0
 30 31  2  0  0  0  0
 30 42  1  0  0  0  0
 31 43  1  0  0  0  0
M  END
> <PUBCHEM_COMPOUND_CID>
3408837

> <PUBCHEM_COMPOUND_CANONICALIZED>
1

> <PUBCHEM_CACTVS_COMPLEXITY>
784

> <PUBCHEM_CACTVS_HBOND_ACCEPTOR>
7

> <PUBCHEM_CACTVS_HBOND_DONOR>
1

> <PUBCHEM_CACTVS_ROTATABLE_BOND>
4

> <PUBCHEM_CACTVS_SUBSKEYS>
AAADccB7MQBkAAAAAAAAAAAAAAAAAWJEAAAwYAAAAAAAAFgB/AAAHwYACAAADC7F3iyx0bMIEgisA6VydAKD8KllLzhJmD14ZtiKILrhn5GEIQhohwL4yacYiMCOAAAAIAAAAQAAAABAAAACAAAAAAAAAA==

> <PUBCHEM_IUPAC_OPENEYE_NAME>
2-(3-chlorophenyl)-1-(6-fluoro-1,3-benzothiazol-2-yl)-4-hydroxy-3-(thiophene-2-carbonyl)-2H-pyrrol-5-one

> <PUBCHEM_IUPAC_CAS_NAME>
2-(3-chlorophenyl)-1-(6-fluoro-1,3-benzothiazol-2-yl)-4-hydroxy-3-[oxo(thiophen-2-yl)methyl]-2H-pyrrol-5-one

> <PUBCHEM_IUPAC_NAME>
2-(3-chlorophenyl)-1-(6-fluoro-1,3-benzothiazol-2-yl)-4-hydroxy-3-(thiophene-2-carbonyl)-2H-pyrrol-5-one

> <PUBCHEM_IUPAC_SYSTEMATIC_NAME>
2-(3-chlorophenyl)-1-(6-fluoranyl-1,3-benzothiazol-2-yl)-4-oxidanyl-3-thiophen-2-ylcarbonyl-2H-pyrrol-5-one

> <PUBCHEM_IUPAC_TRADITIONAL_NAME>
5-(3-chlorophenyl)-1-(6-fluoro-1,3-benzothiazol-2-yl)-3-hydroxy-4-(2-thenoyl)-3-pyrrolin-2-one

> <PUBCHEM_IUPAC_INCHI>
InChI=1S/C22H12ClFN2O3S2/c23-12-4-1-3-11(9-12)18-17(19(27)15-5-2-8-30-15)20(28)21(29)26(18)22-25-14-7-6-13(24)10-16(14)31-22/h1-10,18,28H

> <PUBCHEM_IUPAC_INCHIKEY>
HRMSMAMQHMHPAZ-UHFFFAOYSA-N

> <PUBCHEM_XLOGP3_AA>
6.1

> <PUBCHEM_EXACT_MASS>
469.996

> <PUBCHEM_MOLECULAR_FORMULA>
C22H12ClFN2O3S2

> <PUBCHEM_MOLECULAR_WEIGHT>
470.917

> <PUBCHEM_OPENEYE_CAN_SMILES>
C1=CC(=CC(=C1)Cl)C2C(=C(C(=O)N2C3=NC4=C(S3)C=C(C=C4)F)O)C(=O)C5=CC=CS5

> <PUBCHEM_OPENEYE_ISO_SMILES>
C1=CC(=CC(=C1)Cl)C2C(=C(C(=O)N2C3=NC4=C(S3)C=C(C=C4)F)O)C(=O)C5=CC=CS5

> <PUBCHEM_CACTVS_TPSA>
127

> <PUBCHEM_MONOISOTOPIC_WEIGHT>
469.996

> <PUBCHEM_TOTAL_CHARGE>
0

> <PUBCHEM_HEAVY_ATOM_COUNT>
31

> <PUBCHEM_ATOM_DEF_STEREO_COUNT>
0

> <PUBCHEM_ATOM_UDEF_STEREO_COUNT>
1

> <PUBCHEM_BOND_DEF_STEREO_COUNT>
0

> <PUBCHEM_BOND_UDEF_STEREO_COUNT>
0

> <PUBCHEM_ISOTOPIC_ATOM_COUNT>
0

> <PUBCHEM_COMPONENT_COUNT>
1

> <PUBCHEM_CACTVS_TAUTO_COUNT>
3

> <PUBCHEM_COORDINATE_TYPE>
1
5
255

> <PUBCHEM_BONDANNOTATIONS>
10  12  3
12  17  8
12  18  8
17  22  8
18  23  8
19  20  8
19  25  8
2  15  8
2  19  8
20  26  8
21  27  8
22  24  8
23  24  8
25  28  8
26  29  8
27  30  8
28  29  8
3  21  8
3  31  8
30  31  8
9  15  8
9  20  8

$$$$
6275433
  -OEChem-11021604552D

 64 69  0     1  0  0  0  0  0999 V2000
    2.0000    0.3966    0.0000 Cl  0  0  0  0  0  0  0  0  0  0  0  0
    5.5045    0.9613    0.0000 S   0  0  0  0  0  0  0  0  0  0  0  0
    9.4440    0.0907    0.0000 O   0  0  0  0  0  0  0  0  0  0  0  0
    9.2166    3.2544    0.0000 O   0  0  0  0  0  0  0  0  0  0  0  0
    7.0886    3.7067    0.0000 O   0  0  0  0  0  0  0  0  0  0  0  0
   12.9360    1.0561    0.0000 O   0  0  0  0  0  0  0  0  0  0  0  0
   12.9360    3.1254    0.0000 O   0  0  0  0  0  0  0  0  0  0  0  0
    6.9953    1.9272    0.0000 N   0  0  0  0  0  0  0  0  0  0  0  0
    5.3362    2.5620    0.0000 N   0  0  0  0  0  0  0  0  0  0  0  0
    7.6644    1.1840    0.0000 C   0  0  3  0  0  0  0  0  0  0  0  0
    6.8328   -2.7286    0.0000 C   0  0  0  0  0  0  0  0  0  0  0  0
    7.4565    0.2059    0.0000 C   0  0  0  0  0  0  0  0  0  0  0  0
    8.5780    1.5908    0.0000 C   0  0  0  0  0  0  0  0  0  0  0  0
    7.0407   -1.7504    0.0000 C   0  0  0  0  0  0  0  0  0  0  0  0
    6.5054   -0.1032    0.0000 C   0  0  0  0  0  0  0  0  0  0  0  0
    8.1996   -0.4633    0.0000 C   0  0  0  0  0  0  0  0  0  0  0  0
    8.4734    2.5853    0.0000 C   0  0  0  0  0  0  0  0  0  0  0  0
    7.4953    2.7932    0.0000 C   0  0  0  0  0  0  0  0  0  0  0  0
    6.2975   -1.0813    0.0000 C   0  0  0  0  0  0  0  0  0  0  0  0
    7.9917   -1.4414    0.0000 C   0  0  0  0  0  0  0  0  0  0  0  0
    6.6249   -3.7067    0.0000 C   0  0  0  0  0  0  0  0  0  0  0  0
    7.8109   -2.9365    0.0000 C   0  0  0  0  0  0  0  0  0  0  0  0
    5.8546   -2.5207    0.0000 C   0  0  0  0  0  0  0  0  0  0  0  0
    9.4440    1.0908    0.0000 C   0  0  0  0  0  0  0  0  0  0  0  0
    6.0008    1.8226    0.0000 C   0  0  0  0  0  0  0  0  0  0  0  0
   10.3100    1.5908    0.0000 C   0  0  0  0  0  0  0  0  0  0  0  0
    4.5316    1.1655    0.0000 C   0  0  0  0  0  0  0  0  0  0  0  0
    4.4271    2.1600    0.0000 C   0  0  0  0  0  0  0  0  0  0  0  0
   11.1760    1.0908    0.0000 C   0  0  0  0  0  0  0  0  0  0  0  0
   10.3100    2.5908    0.0000 C   0  0  0  0  0  0  0  0  0  0  0  0
   12.0421    1.5908    0.0000 C   0  0  0  0  0  0  0  0  0  0  0  0
   12.0421    2.5908    0.0000 C   0  0  0  0  0  0  0  0  0  0  0  0
   11.1760    3.0908    0.0000 C   0  0  0  0  0  0  0  0  0  0  0  0
    3.7226    0.5777    0.0000 C   0  0  0  0  0  0  0  0  0  0  0  0
    3.5135    2.5667    0.0000 C   0  0  0  0  0  0  0  0  0  0  0  0
   13.8421    1.5699    0.0000 C   0  0  0  0  0  0  0  0  0  0  0  0
   13.8421    2.6116    0.0000 C   0  0  0  0  0  0  0  0  0  0  0  0
    2.8090    0.9844    0.0000 C   0  0  0  0  0  0  0  0  0  0  0  0
    2.7045    1.9789    0.0000 C   0  0  0  0  0  0  0  0  0  0  0  0
    7.0655    1.0235    0.0000 H   0  0  0  0  0  0  0  0  0  0  0  0
    6.0447    0.3117    0.0000 H   0  0  0  0  0  0  0  0  0  0  0  0
    8.7893   -0.2717    0.0000 H   0  0  0  0  0  0  0  0  0  0  0  0
    5.7079   -1.2729    0.0000 H   0  0  0  0  0  0  0  0  0  0  0  0
    8.4525   -1.8563    0.0000 H   0  0  0  0  0  0  0  0  0  0  0  0
    5.9835   -1.9142    0.0000 H   0  0  0  0  0  0  0  0  0  0  0  0
    6.0184   -3.5778    0.0000 H   0  0  0  0  0  0  0  0  0  0  0  0
    6.4960   -4.3132    0.0000 H   0  0  0  0  0  0  0  0  0  0  0  0
    7.2313   -3.8356    0.0000 H   0  0  0  0  0  0  0  0  0  0  0  0
    5.2482   -2.3918    0.0000 H   0  0  0  0  0  0  0  0  0  0  0  0
    5.7257   -3.1271    0.0000 H   0  0  0  0  0  0  0  0  0  0  0  0
    7.6820   -3.5429    0.0000 H   0  0  0  0  0  0  0  0  0  0  0  0
    8.4174   -3.0654    0.0000 H   0  0  0  0  0  0  0  0  0  0  0  0
    7.9398   -2.3300    0.0000 H   0  0  0  0  0  0  0  0  0  0  0  0
   11.1760    0.4707    0.0000 H   0  0  0  0  0  0  0  0  0  0  0  0
    9.7731    2.9008    0.0000 H   0  0  0  0  0  0  0  0  0  0  0  0
    9.9809   -0.2193    0.0000 H   0  0  0  0  0  0  0  0  0  0  0  0
   11.1760    3.7108    0.0000 H   0  0  0  0  0  0  0  0  0  0  0  0
    3.7874   -0.0389    0.0000 H   0  0  0  0  0  0  0  0  0  0  0  0
    3.4487    3.1833    0.0000 H   0  0  0  0  0  0  0  0  0  0  0  0
   14.0511    0.9862    0.0000 H   0  0  0  0  0  0  0  0  0  0  0  0
   14.4529    1.6760    0.0000 H   0  0  0  0  0  0  0  0  0  0  0  0
   14.4529    2.5055    0.0000 H   0  0  0  0  0  0  0  0  0  0  0  0
   14.0511    3.1952    0.0000 H   0  0  0  0  0  0  0  0  0  0  0  0
    2.1381    2.2311    0.0000 H   0  0  0  0  0  0  0  0  0  0  0  0
  1 38  1  0  0  0  0
  2 25  1  0  0  0  0
  2 27  1  0  0  0  0
  3 24  1  0  0  0  0
  3 56  1  0  0  0  0
  4 17  2  0  0  0  0
  5 18  2  0  0  0  0
  6 31  1  0  0  0  0
  6 36  1  0  0  0  0
  7 32  1  0  0  0  0
  7 37  1  0  0  0  0
  8 10  1  0  0  0  0
  8 18  1  0  0  0  0
  8 25  1  0  0  0  0
  9 25  2  0  0  0  0
  9 28  1  0  0  0  0
 10 12  1  0  0  0  0
 10 13  1  0  0  0  0
 10 40  1  0  0  0  0
 11 14  1  0  0  0  0
 11 21  1  0  0  0  0
 11 22  1  0  0  0  0
 11 23  1  0  0  0  0
 12 15  2  0  0  0  0
 12 16  1  0  0  0  0
 13 17  1  0  0  0  0
 13 24  2  0  0  0  0
 14 19  2  0  0  0  0
 14 20  1  0  0  0  0
 15 19  1  0  0  0  0
 15 41  1  0  0  0  0
 16 20  2  0  0  0  0
 16 42  1  0  0  0  0
 17 18  1  0  0  0  0
 19 43  1  0  0  0  0
 20 44  1  0  0  0  0
 21 46  1  0  0  0  0
 21 47  1  0  0  0  0
 21 48  1  0  0  0  0
 22 51  1  0  0  0  0
 22 52  1  0  0  0  0
 22 53  1  0  0  0  0
 23 45  1  0  0  0  0
 23 49  1  0  0  0  0
 23 50  1  0  0  0  0
 24 26  1  0  0  0  0
 26 29  2  0  0  0  0
 26 30  1  0  0  0  0
 27 28  2  0  0  0  0
 27 34  1  0  0  0  0
 28 35  1  0  0  0  0
 29 31  1  0  0  0  0
 29 54  1  0  0  0  0
 30 33  2  0  0  0  0
 30 55  1  0  0  0  0
 31 32  2  0  0  0  0
 32 33  1  0  0  0  0
 33 57  1  0  0  0  0
 34 38  2  0  0  0  0
 34 58  1  0  0  0  0
 35 39  2  0  0  0  0
 35 59  1  0  0  0  0
 36 37  1  0  0  0  0
 36 60  1  0  0  0  0
 36 61  1  0  0  0  0
 37 62  1  0  0  0  0
 37 63  1  0  0  0  0
 38 39  1  0  0  0  0
 39 64  1  0  0  0  0
M  END
> <PUBCHEM_COMPOUND_CID>
6275433

> <PUBCHEM_COMPOUND_CANONICALIZED>
1

> <PUBCHEM_CACTVS_COMPLEXITY>
992

> <PUBCHEM_CACTVS_HBOND_ACCEPTOR>
7

> <PUBCHEM_CACTVS_HBOND_DONOR>
1

> <PUBCHEM_CACTVS_ROTATABLE_BOND>
4

> <PUBCHEM_CACTVS_SUBSKEYS>
AAADceB7OABEAAAAAAAAAAAAAAAAAWLAAAA0YMEAAAAAAFiR9AAAHgYACAAADi7h3iYz17MIFgisA6VydACD+KlhLzhJmD2+7tiNJrrlu7uGeCrsxxPK+Sfc6PyP4ABBABAAQQDAAIIAIACCAAAAAAAAAA==

> <PUBCHEM_IUPAC_OPENEYE_NAME>
(4E)-5-(4-tert-butylphenyl)-1-(6-chloro-1,3-benzothiazol-2-yl)-4-[2,3-dihydro-1,4-benzodioxin-6-yl(hydroxy)methylene]pyrrolidine-2,3-dione

> <PUBCHEM_IUPAC_CAS_NAME>
(4E)-5-(4-tert-butylphenyl)-1-(6-chloro-1,3-benzothiazol-2-yl)-4-[2,3-dihydro-1,4-benzodioxin-6-yl(hydroxy)methylidene]pyrrolidine-2,3-dione

> <PUBCHEM_IUPAC_NAME>
(4E)-5-(4-tert-butylphenyl)-1-(6-chloro-1,3-benzothiazol-2-yl)-4-[2,3-dihydro-1,4-benzodioxin-6-yl(hydroxy)methylidene]pyrrolidine-2,3-dione

> <PUBCHEM_IUPAC_SYSTEMATIC_NAME>
(4E)-5-(4-tert-butylphenyl)-1-(6-chloranyl-1,3-benzothiazol-2-yl)-4-[2,3-dihydro-1,4-benzodioxin-6-yl(oxidanyl)methylidene]pyrrolidine-2,3-dione

> <PUBCHEM_IUPAC_TRADITIONAL_NAME>
(4E)-5-(4-tert-butylphenyl)-1-(6-chloro-1,3-benzothiazol-2-yl)-4-[2,3-dihydro-1,4-benzodioxin-6-yl(hydroxy)methylene]pyrrolidine-2,3-quinone

> <PUBCHEM_IUPAC_INCHI>
InChI=1S/C30H25ClN2O5S/c1-30(2,3)18-7-4-16(5-8-18)25-24(26(34)17-6-11-21-22(14-17)38-13-12-37-21)27(35)28(36)33(25)29-32-20-10-9-19(31)15-23(20)39-29/h4-11,14-15,25,34H,12-13H2,1-3H3/b26-24+

> <PUBCHEM_IUPAC_INCHIKEY>
VGKIGLIKLUXSGL-SHHOIMCASA-N

> <PUBCHEM_XLOGP3_AA>
7.3

> <PUBCHEM_EXACT_MASS>
560.117

> <PUBCHEM_MOLECULAR_FORMULA>
C30H25ClN2O5S

> <PUBCHEM_MOLECULAR_WEIGHT>
561.049

> <PUBCHEM_OPENEYE_CAN_SMILES>
CC(C)(C)C1=CC=C(C=C1)C2C(=C(C3=CC4=C(C=C3)OCCO4)O)C(=O)C(=O)N2C5=NC6=C(S5)C=C(C=C6)Cl

> <PUBCHEM_OPENEYE_ISO_SMILES>
CC(C)(C)C1=CC=C(C=C1)C2/C(=C(/C3=CC4=C(C=C3)OCCO4)\O)/C(=O)C(=O)N2C5=NC6=C(S5)C=C(C=C6)Cl

> <PUBCHEM_CACTVS_TPSA>
117

> <PUBCHEM_MONOISOTOPIC_WEIGHT>
560.117

> <PUBCHEM_TOTAL_CHARGE>
0

> <PUBCHEM_HEAVY_ATOM_COUNT>
39

> <PUBCHEM_ATOM_DEF_STEREO_COUNT>
0

> <PUBCHEM_ATOM_UDEF_STEREO_COUNT>
1

> <PUBCHEM_BOND_DEF_STEREO_COUNT>
1

> <PUBCHEM_BOND_UDEF_STEREO_COUNT>
0

> <PUBCHEM_ISOTOPIC_ATOM_COUNT>
0

> <PUBCHEM_COMPONENT_COUNT>
1

> <PUBCHEM_CACTVS_TAUTO_COUNT>
3

> <PUBCHEM_COORDINATE_TYPE>
1
5
255

> <PUBCHEM_BONDANNOTATIONS>
10  12  3
12  15  8
12  16  8
14  19  8
14  20  8
15  19  8
16  20  8
2  25  8
2  27  8
26  29  8
26  30  8
27  28  8
27  34  8
28  35  8
29  31  8
30  33  8
31  32  8
32  33  8
34  38  8
35  39  8
38  39  8
9  25  8
9  28  8

$$$$
118729144
  -OEChem-11021604552D

 65 69  0     1  0  0  0  0  0999 V2000
    7.2764    2.2992    0.0000 S   0  0  0  0  0  0  0  0  0  0  0  0
    9.1387    3.2546    0.0000 O   0  0  0  0  0  0  0  0  0  0  0  0
   11.2078    2.5823    0.0000 O   0  0  0  0  0  0  0  0  0  0  0  0
   12.1214    0.8135    0.0000 O   0  0  0  0  0  0  0  0  0  0  0  0
    3.7320    2.4945    0.0000 O   0  0  0  0  0  0  0  0  0  0  0  0
    8.8600    1.4945    0.0000 N   0  0  0  0  0  0  0  0  0  0  0  0
    7.2764    0.6898    0.0000 N   0  0  0  0  0  0  0  0  0  0  0  0
    9.4477    0.6855    0.0000 C   0  0  3  0  0  0  0  0  0  0  0  0
    6.9852   -2.4666    0.0000 C   0  0  0  0  0  0  0  0  0  0  0  0
    8.8321   -0.1025    0.0000 C   0  0  0  0  0  0  0  0  0  0  0  0
    7.6008   -1.6786    0.0000 C   0  0  0  0  0  0  0  0  0  0  0  0
   10.3988    0.9945    0.0000 C   0  0  0  0  0  0  0  0  0  0  0  0
    7.8418    0.0367    0.0000 C   0  0  0  0  0  0  0  0  0  0  0  0
    9.2067   -1.0297    0.0000 C   0  0  0  0  0  0  0  0  0  0  0  0
    7.2262   -0.7514    0.0000 C   0  0  0  0  0  0  0  0  0  0  0  0
    8.5910   -1.8177    0.0000 C   0  0  0  0  0  0  0  0  0  0  0  0
    9.4477    2.3035    0.0000 C   0  0  0  0  0  0  0  0  0  0  0  0
   10.3988    1.9945    0.0000 C   0  0  0  0  0  0  0  0  0  0  0  0
    6.3695   -3.2546    0.0000 C   0  0  0  0  0  0  0  0  0  0  0  0
    6.1971   -1.8509    0.0000 C   0  0  0  0  0  0  0  0  0  0  0  0
    7.7732   -3.0822    0.0000 C   0  0  0  0  0  0  0  0  0  0  0  0
    7.8600    1.4945    0.0000 C   0  0  0  0  0  0  0  0  0  0  0  0
   11.2078    0.4067    0.0000 C   0  0  0  0  0  0  0  0  0  0  0  0
   11.4498   -0.5635    0.0000 C   0  0  0  0  0  0  0  0  0  0  0  0
    6.3301    1.9945    0.0000 C   0  0  0  0  0  0  0  0  0  0  0  0
    6.3301    0.9945    0.0000 C   0  0  0  0  0  0  0  0  0  0  0  0
   12.4110   -0.8392    0.0000 C   0  0  0  0  0  0  0  0  0  0  0  0
   10.7304   -1.2582    0.0000 C   0  0  0  0  0  0  0  0  0  0  0  0
    5.4641    2.4945    0.0000 C   0  0  0  0  0  0  0  0  0  0  0  0
    5.4641    0.4945    0.0000 C   0  0  0  0  0  0  0  0  0  0  0  0
    4.5981    1.9945    0.0000 C   0  0  0  0  0  0  0  0  0  0  0  0
    4.5981    0.9945    0.0000 C   0  0  0  0  0  0  0  0  0  0  0  0
   12.6529   -1.8095    0.0000 C   0  0  0  0  0  0  0  0  0  0  0  0
   10.9724   -2.2285    0.0000 C   0  0  0  0  0  0  0  0  0  0  0  0
   11.9337   -2.5041    0.0000 C   0  0  0  0  0  0  0  0  0  0  0  0
    2.8660    1.9945    0.0000 C   0  0  0  0  0  0  0  0  0  0  0  0
    2.0000    2.4945    0.0000 C   0  0  0  0  0  0  0  0  0  0  0  0
    9.8034    0.1776    0.0000 H   0  0  0  0  0  0  0  0  0  0  0  0
    7.6096    0.6115    0.0000 H   0  0  0  0  0  0  0  0  0  0  0  0
    9.8206   -1.1160    0.0000 H   0  0  0  0  0  0  0  0  0  0  0  0
    6.6122   -0.6651    0.0000 H   0  0  0  0  0  0  0  0  0  0  0  0
    8.8233   -2.3926    0.0000 H   0  0  0  0  0  0  0  0  0  0  0  0
    5.8809   -2.8729    0.0000 H   0  0  0  0  0  0  0  0  0  0  0  0
    5.9878   -3.7432    0.0000 H   0  0  0  0  0  0  0  0  0  0  0  0
    6.8580   -3.6363    0.0000 H   0  0  0  0  0  0  0  0  0  0  0  0
    6.5788   -1.3623    0.0000 H   0  0  0  0  0  0  0  0  0  0  0  0
    5.7085   -1.4692    0.0000 H   0  0  0  0  0  0  0  0  0  0  0  0
    5.8154   -2.3395    0.0000 H   0  0  0  0  0  0  0  0  0  0  0  0
    7.3915   -3.5708    0.0000 H   0  0  0  0  0  0  0  0  0  0  0  0
    8.2618   -3.4639    0.0000 H   0  0  0  0  0  0  0  0  0  0  0  0
    8.1549   -2.5937    0.0000 H   0  0  0  0  0  0  0  0  0  0  0  0
   12.6230    0.4490    0.0000 H   0  0  0  0  0  0  0  0  0  0  0  0
   12.8570   -0.4085    0.0000 H   0  0  0  0  0  0  0  0  0  0  0  0
   10.1344   -1.0873    0.0000 H   0  0  0  0  0  0  0  0  0  0  0  0
    5.4641    3.1145    0.0000 H   0  0  0  0  0  0  0  0  0  0  0  0
    5.4641   -0.1255    0.0000 H   0  0  0  0  0  0  0  0  0  0  0  0
    4.0611    0.6845    0.0000 H   0  0  0  0  0  0  0  0  0  0  0  0
   13.2489   -1.9804    0.0000 H   0  0  0  0  0  0  0  0  0  0  0  0
   10.5264   -2.6592    0.0000 H   0  0  0  0  0  0  0  0  0  0  0  0
   12.0837   -3.1057    0.0000 H   0  0  0  0  0  0  0  0  0  0  0  0
    2.4675    1.5196    0.0000 H   0  0  0  0  0  0  0  0  0  0  0  0
    3.2646    1.5196    0.0000 H   0  0  0  0  0  0  0  0  0  0  0  0
    2.3100    3.0314    0.0000 H   0  0  0  0  0  0  0  0  0  0  0  0
    1.4631    2.8045    0.0000 H   0  0  0  0  0  0  0  0  0  0  0  0
    1.6900    1.9576    0.0000 H   0  0  0  0  0  0  0  0  0  0  0  0
  1 22  1  0  0  0  0
  1 25  1  0  0  0  0
  2 17  2  0  0  0  0
  3 18  2  0  0  0  0
  4 23  1  0  0  0  0
  4 52  1  0  0  0  0
  5 31  1  0  0  0  0
  5 36  1  0  0  0  0
  6  8  1  0  0  0  0
  6 17  1  0  0  0  0
  6 22  1  0  0  0  0
  7 22  2  0  0  0  0
  7 26  1  0  0  0  0
  8 10  1  0  0  0  0
  8 12  1  0  0  0  0
  8 38  1  0  0  0  0
  9 11  1  0  0  0  0
  9 19  1  0  0  0  0
  9 20  1  0  0  0  0
  9 21  1  0  0  0  0
 10 13  2  0  0  0  0
 10 14  1  0  0  0  0
 11 15  2  0  0  0  0
 11 16  1  0  0  0  0
 12 18  1  0  0  0  0
 12 23  2  0  0  0  0
 13 15  1  0  0  0  0
 13 39  1  0  0  0  0
 14 16  2  0  0  0  0
 14 40  1  0  0  0  0
 15 41  1  0  0  0  0
 16 42  1  0  0  0  0
 17 18  1  0  0  0  0
 19 43  1  0  0  0  0
 19 44  1  0  0  0  0
 19 45  1  0  0  0  0
 20 46  1  0  0  0  0
 20 47  1  0  0  0  0
 20 48  1  0  0  0  0
 21 49  1  0  0  0  0
 21 50  1  0  0  0  0
 21 51  1  0  0  0  0
 23 24  1  0  0  0  0
 24 27  2  0  0  0  0
 24 28  1  0  0  0  0
 25 26  2  0  0  0  0
 25 29  1  0  0  0  0
 26 30  1  0  0  0  0
 27 33  1  0  0  0  0
 27 53  1  0  0  0  0
 28 34  2  0  0  0  0
 28 54  1  0  0  0  0
 29 31  2  0  0  0  0
 29 55  1  0  0  0  0
 30 32  2  0  0  0  0
 30 56  1  0  0  0  0
 31 32  1  0  0  0  0
 32 57  1  0  0  0  0
 33 35  2  0  0  0  0
 33 58  1  0  0  0  0
 34 35  1  0  0  0  0
 34 59  1  0  0  0  0
 35 60  1  0  0  0  0
 36 37  1  0  0  0  0
 36 61  1  0  0  0  0
 36 62  1  0  0  0  0
 37 63  1  0  0  0  0
 37 64  1  0  0  0  0
 37 65  1  0  0  0  0
M  END
> <PUBCHEM_COMPOUND_CID>
118729144

> <PUBCHEM_COMPOUND_CANONICALIZED>
1

> <PUBCHEM_CACTVS_COMPLEXITY>
885

> <PUBCHEM_CACTVS_HBOND_ACCEPTOR>
6

> <PUBCHEM_CACTVS_HBOND_DONOR>
1

> <PUBCHEM_CACTVS_ROTATABLE_BOND>
6

> <PUBCHEM_CACTVS_SUBSKEYS>
AAADceB7OABAAAAAAAAAAAAAAAAAAWLAAAAwYMAAAAAAAFgB9AAAHgQACAAADizh3gYz17MIFgisA6VydACD+KlhKjhJmD2+bNiMJrrkubuGeCjsxxPI+Se8yOCPwEAABAAAAQCAgAAIAAACAAAAAAAAAA==

> <PUBCHEM_IUPAC_OPENEYE_NAME>
(4Z)-5-(4-tert-butylphenyl)-1-(6-ethoxy-1,3-benzothiazol-2-yl)-4-[hydroxy(phenyl)methylene]pyrrolidine-2,3-dione

> <PUBCHEM_IUPAC_CAS_NAME>
(4Z)-5-(4-tert-butylphenyl)-1-(6-ethoxy-1,3-benzothiazol-2-yl)-4-[hydroxy(phenyl)methylidene]pyrrolidine-2,3-dione

> <PUBCHEM_IUPAC_NAME>
(4Z)-5-(4-tert-butylphenyl)-1-(6-ethoxy-1,3-benzothiazol-2-yl)-4-[hydroxy(phenyl)methylidene]pyrrolidine-2,3-dione

> <PUBCHEM_IUPAC_SYSTEMATIC_NAME>
(4Z)-5-(4-tert-butylphenyl)-1-(6-ethoxy-1,3-benzothiazol-2-yl)-4-[oxidanyl(phenyl)methylidene]pyrrolidine-2,3-dione

> <PUBCHEM_IUPAC_TRADITIONAL_NAME>
(4Z)-5-(4-tert-butylphenyl)-1-(6-ethoxy-1,3-benzothiazol-2-yl)-4-[hydroxy(phenyl)methylene]pyrrolidine-2,3-quinone

> <PUBCHEM_IUPAC_INCHI>
InChI=1S/C30H28N2O4S/c1-5-36-21-15-16-22-23(17-21)37-29(31-22)32-25(18-11-13-20(14-12-18)30(2,3)4)24(27(34)28(32)35)26(33)19-9-7-6-8-10-19/h6-17,25,33H,5H2,1-4H3/b26-24-

> <PUBCHEM_IUPAC_INCHIKEY>
JFZLRLPUTZHVFQ-LCUIJRPUSA-N

> <PUBCHEM_XLOGP3_AA>
7.3

> <PUBCHEM_EXACT_MASS>
512.177

> <PUBCHEM_MOLECULAR_FORMULA>
C30H28N2O4S

> <PUBCHEM_MOLECULAR_WEIGHT>
512.624

> <PUBCHEM_OPENEYE_CAN_SMILES>
CCOC1=CC2=C(C=C1)N=C(S2)N3C(C(=C(C4=CC=CC=C4)O)C(=O)C3=O)C5=CC=C(C=C5)C(C)(C)C

> <PUBCHEM_OPENEYE_ISO_SMILES>
CCOC1=CC2=C(C=C1)N=C(S2)N3C(/C(=C(\C4=CC=CC=C4)/O)/C(=O)C3=O)C5=CC=C(C=C5)C(C)(C)C

> <PUBCHEM_CACTVS_TPSA>
108

> <PUBCHEM_MONOISOTOPIC_WEIGHT>
512.177

> <PUBCHEM_TOTAL_CHARGE>
0

> <PUBCHEM_HEAVY_ATOM_COUNT>
37

> <PUBCHEM_ATOM_DEF_STEREO_COUNT>
0

> <PUBCHEM_ATOM_UDEF_STEREO_COUNT>
1

> <PUBCHEM_BOND_DEF_STEREO_COUNT>
1

> <PUBCHEM_BOND_UDEF_STEREO_COUNT>
0

> <PUBCHEM_ISOTOPIC_ATOM_COUNT>
0

> <PUBCHEM_COMPONENT_COUNT>
1

> <PUBCHEM_CACTVS_TAUTO_COUNT>
3

> <PUBCHEM_COORDINATE_TYPE>
1
5
255

> <PUBCHEM_BONDANNOTATIONS>
1  22  8
1  25  8
10  13  8
10  14  8
11  15  8
11  16  8
13  15  8
14  16  8
24  27  8
24  28  8
25  26  8
25  29  8
26  30  8
27  33  8
28  34  8
29  31  8
30  32  8
31  32  8
33  35  8
34  35  8
7  22  8
7  26  8
8  10  3

$$$$
3953315
  -OEChem-11021604552D

 46 50  0     1  0  0  0  0  0999 V2000
    6.4796   -3.1867    0.0000 Br  0  0  0  0  0  0  0  0  0  0  0  0
    5.5443    2.2313    0.0000 S   0  0  0  0  0  0  0  0  0  0  0  0
    9.4758    2.5144    0.0000 O   0  0  0  0  0  0  0  0  0  0  0  0
    7.4067    3.1867    0.0000 O   0  0  0  0  0  0  0  0  0  0  0  0
    9.3712   -0.6557    0.0000 O   0  0  0  0  0  0  0  0  0  0  0  0
   10.5972    1.7237    0.0000 O   0  0  0  0  0  0  0  0  0  0  0  0
    7.1279    1.4266    0.0000 N   0  0  0  0  0  0  0  0  0  0  0  0
    5.5443    0.6219    0.0000 N   0  0  0  0  0  0  0  0  0  0  0  0
    7.7157    0.6176    0.0000 C   0  0  3  0  0  0  0  0  0  0  0  0
    8.6668    0.9266    0.0000 C   0  0  0  0  0  0  0  0  0  0  0  0
    7.4067   -0.3335    0.0000 C   0  0  0  0  0  0  0  0  0  0  0  0
    8.6668    1.9266    0.0000 C   0  0  0  0  0  0  0  0  0  0  0  0
    7.7157    2.2356    0.0000 C   0  0  0  0  0  0  0  0  0  0  0  0
    6.1279    1.4266    0.0000 C   0  0  0  0  0  0  0  0  0  0  0  0
    9.4758    0.3388    0.0000 C   0  0  0  0  0  0  0  0  0  0  0  0
    6.4285   -0.5414    0.0000 C   0  0  0  0  0  0  0  0  0  0  0  0
    8.0758   -1.0766    0.0000 C   0  0  0  0  0  0  0  0  0  0  0  0
    4.5981    1.9266    0.0000 C   0  0  0  0  0  0  0  0  0  0  0  0
    4.5981    0.9266    0.0000 C   0  0  0  0  0  0  0  0  0  0  0  0
   10.3893    0.7455    0.0000 C   0  0  0  0  0  0  0  0  0  0  0  0
    6.1195   -1.4925    0.0000 C   0  0  0  0  0  0  0  0  0  0  0  0
    7.7668   -2.0277    0.0000 C   0  0  0  0  0  0  0  0  0  0  0  0
    3.7320    2.4266    0.0000 C   0  0  0  0  0  0  0  0  0  0  0  0
    6.7886   -2.2356    0.0000 C   0  0  0  0  0  0  0  0  0  0  0  0
    3.7320    0.4266    0.0000 C   0  0  0  0  0  0  0  0  0  0  0  0
    2.8660    1.9266    0.0000 C   0  0  0  0  0  0  0  0  0  0  0  0
    2.8660    0.9266    0.0000 C   0  0  0  0  0  0  0  0  0  0  0  0
   11.2553    0.2455    0.0000 C   0  0  0  0  0  0  0  0  0  0  0  0
    2.0000    2.4266    0.0000 C   0  0  0  0  0  0  0  0  0  0  0  0
   11.9985    0.9147    0.0000 C   0  0  0  0  0  0  0  0  0  0  0  0
   11.5917    1.8282    0.0000 C   0  0  0  0  0  0  0  0  0  0  0  0
    7.1033    0.5206    0.0000 H   0  0  0  0  0  0  0  0  0  0  0  0
    6.0137   -0.0807    0.0000 H   0  0  0  0  0  0  0  0  0  0  0  0
    8.6822   -0.9477    0.0000 H   0  0  0  0  0  0  0  0  0  0  0  0
    5.5131   -1.6214    0.0000 H   0  0  0  0  0  0  0  0  0  0  0  0
    8.1816   -2.4884    0.0000 H   0  0  0  0  0  0  0  0  0  0  0  0
    9.4110    3.1310    0.0000 H   0  0  0  0  0  0  0  0  0  0  0  0
    3.7320    3.0466    0.0000 H   0  0  0  0  0  0  0  0  0  0  0  0
    3.7320   -0.1934    0.0000 H   0  0  0  0  0  0  0  0  0  0  0  0
    2.3291    0.6166    0.0000 H   0  0  0  0  0  0  0  0  0  0  0  0
   11.3201   -0.3711    0.0000 H   0  0  0  0  0  0  0  0  0  0  0  0
    2.3100    2.9635    0.0000 H   0  0  0  0  0  0  0  0  0  0  0  0
    1.4631    2.7366    0.0000 H   0  0  0  0  0  0  0  0  0  0  0  0
    1.6900    1.8896    0.0000 H   0  0  0  0  0  0  0  0  0  0  0  0
   12.6049    0.7858    0.0000 H   0  0  0  0  0  0  0  0  0  0  0  0
   11.9017    2.3652    0.0000 H   0  0  0  0  0  0  0  0  0  0  0  0
  1 24  1  0  0  0  0
  2 14  1  0  0  0  0
  2 18  1  0  0  0  0
  3 12  1  0  0  0  0
  3 37  1  0  0  0  0
  4 13  2  0  0  0  0
  5 15  2  0  0  0  0
  6 20  1  0  0  0  0
  6 31  1  0  0  0  0
  7  9  1  0  0  0  0
  7 13  1  0  0  0  0
  7 14  1  0  0  0  0
  8 14  2  0  0  0  0
  8 19  1  0  0  0  0
  9 10  1  0  0  0  0
  9 11  1  0  0  0  0
  9 32  1  0  0  0  0
 10 12  2  0  0  0  0
 10 15  1  0  0  0  0
 11 16  2  0  0  0  0
 11 17  1  0  0  0  0
 12 13  1  0  0  0  0
 15 20  1  0  0  0  0
 16 21  1  0  0  0  0
 16 33  1  0  0  0  0
 17 22  2  0  0  0  0
 17 34  1  0  0  0  0
 18 19  2  0  0  0  0
 18 23  1  0  0  0  0
 19 25  1  0  0  0  0
 20 28  2  0  0  0  0
 21 24  2  0  0  0  0
 21 35  1  0  0  0  0
 22 24  1  0  0  0  0
 22 36  1  0  0  0  0
 23 26  2  0  0  0  0
 23 38  1  0  0  0  0
 25 27  2  0  0  0  0
 25 39  1  0  0  0  0
 26 27  1  0  0  0  0
 26 29  1  0  0  0  0
 27 40  1  0  0  0  0
 28 30  1  0  0  0  0
 28 41  1  0  0  0  0
 29 42  1  0  0  0  0
 29 43  1  0  0  0  0
 29 44  1  0  0  0  0
 30 31  2  0  0  0  0
 30 45  1  0  0  0  0
 31 46  1  0  0  0  0
M  END
> <PUBCHEM_COMPOUND_CID>
3953315

> <PUBCHEM_COMPOUND_CANONICALIZED>
1

> <PUBCHEM_CACTVS_COMPLEXITY>
769

> <PUBCHEM_CACTVS_HBOND_ACCEPTOR>
6

> <PUBCHEM_CACTVS_HBOND_DONOR>
1

> <PUBCHEM_CACTVS_ROTATABLE_BOND>
4

> <PUBCHEM_CACTVS_SUBSKEYS>
AAADccB7OABAEAAAAAAAAAAAAAAAAWJEAAAwYAAAAAAAAFgB/AAAHgRACAABrCzh3gYz1bMIFkisA61y9AKD+KllKjxJmD1+bPiOJrrkvZ+GOSjsxxPY67e8zvCuCgAAgAAAAQAUAAEAAAACAAAAAAAAAA==

> <PUBCHEM_IUPAC_OPENEYE_NAME>
2-(4-bromophenyl)-3-(furan-2-carbonyl)-4-hydroxy-1-(6-methyl-1,3-benzothiazol-2-yl)-2H-pyrrol-5-one

> <PUBCHEM_IUPAC_CAS_NAME>
2-(4-bromophenyl)-3-[2-furanyl(oxo)methyl]-4-hydroxy-1-(6-methyl-1,3-benzothiazol-2-yl)-2H-pyrrol-5-one

> <PUBCHEM_IUPAC_NAME>
2-(4-bromophenyl)-3-(furan-2-carbonyl)-4-hydroxy-1-(6-methyl-1,3-benzothiazol-2-yl)-2H-pyrrol-5-one

> <PUBCHEM_IUPAC_SYSTEMATIC_NAME>
2-(4-bromophenyl)-3-(furan-2-ylcarbonyl)-1-(6-methyl-1,3-benzothiazol-2-yl)-4-oxidanyl-2H-pyrrol-5-one

> <PUBCHEM_IUPAC_TRADITIONAL_NAME>
5-(4-bromophenyl)-4-(2-furoyl)-3-hydroxy-1-(6-methyl-1,3-benzothiazol-2-yl)-3-pyrrolin-2-one

> <PUBCHEM_IUPAC_INCHI>
InChI=1S/C23H15BrN2O4S/c1-12-4-9-15-17(11-12)31-23(25-15)26-19(13-5-7-14(24)8-6-13)18(21(28)22(26)29)20(27)16-3-2-10-30-16/h2-11,19,28H,1H3

> <PUBCHEM_IUPAC_INCHIKEY>
BZUFZNADJZYULW-UHFFFAOYSA-N

> <PUBCHEM_XLOGP3_AA>
5.8

> <PUBCHEM_EXACT_MASS>
493.994

> <PUBCHEM_MOLECULAR_FORMULA>
C23H15BrN2O4S

> <PUBCHEM_MOLECULAR_WEIGHT>
495.347

> <PUBCHEM_OPENEYE_CAN_SMILES>
CC1=CC2=C(C=C1)N=C(S2)N3C(C(=C(C3=O)O)C(=O)C4=CC=CO4)C5=CC=C(C=C5)Br

> <PUBCHEM_OPENEYE_ISO_SMILES>
CC1=CC2=C(C=C1)N=C(S2)N3C(C(=C(C3=O)O)C(=O)C4=CC=CO4)C5=CC=C(C=C5)Br

> <PUBCHEM_CACTVS_TPSA>
112

> <PUBCHEM_MONOISOTOPIC_WEIGHT>
493.994

> <PUBCHEM_TOTAL_CHARGE>
0

> <PUBCHEM_HEAVY_ATOM_COUNT>
31

> <PUBCHEM_ATOM_DEF_STEREO_COUNT>
0

> <PUBCHEM_ATOM_UDEF_STEREO_COUNT>
1

> <PUBCHEM_BOND_DEF_STEREO_COUNT>
0

> <PUBCHEM_BOND_UDEF_STEREO_COUNT>
0

> <PUBCHEM_ISOTOPIC_ATOM_COUNT>
0

> <PUBCHEM_COMPONENT_COUNT>
1

> <PUBCHEM_CACTVS_TAUTO_COUNT>
3

> <PUBCHEM_COORDINATE_TYPE>
1
5
255

> <PUBCHEM_BONDANNOTATIONS>
11  16  8
11  17  8
16  21  8
17  22  8
18  19  8
18  23  8
19  25  8
2  14  8
2  18  8
20  28  8
21  24  8
22  24  8
23  26  8
25  27  8
26  27  8
28  30  8
30  31  8
6  20  8
6  31  8
8  14  8
8  19  8
9  11  3

$$$$
16446616
  -OEChem-11021604552D

 70 75  0     1  0  0  0  0  0999 V2000
    6.4934    2.6603    0.0000 S   0  0  0  0  0  0  0  0  0  0  0  0
    2.9491    2.8555    0.0000 F   0  0  0  0  0  0  0  0  0  0  0  0
   11.5888   -3.0354    0.0000 O   0  0  0  0  0  0  0  0  0  0  0  0
   11.3384    1.1745    0.0000 O   0  0  0  0  0  0  0  0  0  0  0  0
   10.4248    2.9433    0.0000 O   0  0  0  0  0  0  0  0  0  0  0  0
    8.3558    3.6156    0.0000 O   0  0  0  0  0  0  0  0  0  0  0  0
    6.2022   -2.1056    0.0000 O   0  0  0  0  0  0  0  0  0  0  0  0
    8.0770    1.8555    0.0000 N   0  0  0  0  0  0  0  0  0  0  0  0
    6.4934    1.0508    0.0000 N   0  0  0  0  0  0  0  0  0  0  0  0
    8.6648    1.0465    0.0000 C   0  0  3  0  0  0  0  0  0  0  0  0
    9.6158    1.3555    0.0000 C   0  0  0  0  0  0  0  0  0  0  0  0
   12.7464   -1.9174    0.0000 C   0  0  0  0  0  0  0  0  0  0  0  0
   12.5730   -2.8963    0.0000 C   0  0  3  0  0  0  0  0  0  0  0  0
   11.8699   -1.4485    0.0000 C   0  0  0  0  0  0  0  0  0  0  0  0
    8.0491    0.2585    0.0000 C   0  0  0  0  0  0  0  0  0  0  0  0
   10.4248    0.7678    0.0000 C   0  0  0  0  0  0  0  0  0  0  0  0
   10.6668   -0.2025    0.0000 C   0  0  0  0  0  0  0  0  0  0  0  0
   11.1507   -2.1431    0.0000 C   0  0  0  0  0  0  0  0  0  0  0  0
    9.6158    2.3555    0.0000 C   0  0  0  0  0  0  0  0  0  0  0  0
    8.6648    2.6646    0.0000 C   0  0  0  0  0  0  0  0  0  0  0  0
   11.6280   -0.4782    0.0000 C   0  0  0  0  0  0  0  0  0  0  0  0
    7.0770    1.8555    0.0000 C   0  0  0  0  0  0  0  0  0  0  0  0
    9.9474   -0.8972    0.0000 C   0  0  0  0  0  0  0  0  0  0  0  0
   10.1894   -1.8675    0.0000 C   0  0  0  0  0  0  0  0  0  0  0  0
   13.2676   -3.6156    0.0000 C   0  0  0  0  0  0  0  0  0  0  0  0
    7.0588    0.3977    0.0000 C   0  0  0  0  0  0  0  0  0  0  0  0
    8.4237   -0.6687    0.0000 C   0  0  0  0  0  0  0  0  0  0  0  0
    6.4432   -0.3903    0.0000 C   0  0  0  0  0  0  0  0  0  0  0  0
    7.8080   -1.4567    0.0000 C   0  0  0  0  0  0  0  0  0  0  0  0
    6.8178   -1.3176    0.0000 C   0  0  0  0  0  0  0  0  0  0  0  0
    5.5472    2.3555    0.0000 C   0  0  0  0  0  0  0  0  0  0  0  0
    5.5472    1.3555    0.0000 C   0  0  0  0  0  0  0  0  0  0  0  0
    4.5962   -2.7544    0.0000 C   0  0  0  0  0  0  0  0  0  0  0  0
    5.2119   -1.9664    0.0000 C   0  0  0  0  0  0  0  0  0  0  0  0
    3.6059   -2.6152    0.0000 C   0  0  0  0  0  0  0  0  0  0  0  0
    4.6811    2.8555    0.0000 C   0  0  0  0  0  0  0  0  0  0  0  0
    4.6811    0.8555    0.0000 C   0  0  0  0  0  0  0  0  0  0  0  0
    2.9903   -3.4032    0.0000 C   0  0  0  0  0  0  0  0  0  0  0  0
    3.8151    2.3555    0.0000 C   0  0  0  0  0  0  0  0  0  0  0  0
    3.8151    1.3555    0.0000 C   0  0  0  0  0  0  0  0  0  0  0  0
    2.0000   -3.2640    0.0000 C   0  0  0  0  0  0  0  0  0  0  0  0
    9.0204    0.5387    0.0000 H   0  0  0  0  0  0  0  0  0  0  0  0
   13.3422   -2.0892    0.0000 H   0  0  0  0  0  0  0  0  0  0  0  0
   12.9799   -1.3431    0.0000 H   0  0  0  0  0  0  0  0  0  0  0  0
   12.3714   -3.4826    0.0000 H   0  0  0  0  0  0  0  0  0  0  0  0
   12.0740   -0.0475    0.0000 H   0  0  0  0  0  0  0  0  0  0  0  0
    9.3515   -0.7263    0.0000 H   0  0  0  0  0  0  0  0  0  0  0  0
    9.7434   -2.2982    0.0000 H   0  0  0  0  0  0  0  0  0  0  0  0
   12.8216   -4.0463    0.0000 H   0  0  0  0  0  0  0  0  0  0  0  0
   13.6983   -4.0616    0.0000 H   0  0  0  0  0  0  0  0  0  0  0  0
   13.7136   -3.1849    0.0000 H   0  0  0  0  0  0  0  0  0  0  0  0
    6.8266    0.9725    0.0000 H   0  0  0  0  0  0  0  0  0  0  0  0
    9.0377   -0.7550    0.0000 H   0  0  0  0  0  0  0  0  0  0  0  0
    5.8292   -0.3041    0.0000 H   0  0  0  0  0  0  0  0  0  0  0  0
    8.0403   -2.0315    0.0000 H   0  0  0  0  0  0  0  0  0  0  0  0
   11.8400    0.8101    0.0000 H   0  0  0  0  0  0  0  0  0  0  0  0
    4.4046   -3.3440    0.0000 H   0  0  0  0  0  0  0  0  0  0  0  0
    5.1436   -3.0455    0.0000 H   0  0  0  0  0  0  0  0  0  0  0  0
    5.4035   -1.3767    0.0000 H   0  0  0  0  0  0  0  0  0  0  0  0
    4.6645   -1.6753    0.0000 H   0  0  0  0  0  0  0  0  0  0  0  0
    3.7975   -2.0256    0.0000 H   0  0  0  0  0  0  0  0  0  0  0  0
    3.0585   -2.3241    0.0000 H   0  0  0  0  0  0  0  0  0  0  0  0
    4.6811    3.4755    0.0000 H   0  0  0  0  0  0  0  0  0  0  0  0
    4.6811    0.2355    0.0000 H   0  0  0  0  0  0  0  0  0  0  0  0
    2.7987   -3.9929    0.0000 H   0  0  0  0  0  0  0  0  0  0  0  0
    3.5377   -3.6943    0.0000 H   0  0  0  0  0  0  0  0  0  0  0  0
    3.2782    1.0455    0.0000 H   0  0  0  0  0  0  0  0  0  0  0  0
    2.0863   -2.6501    0.0000 H   0  0  0  0  0  0  0  0  0  0  0  0
    1.3860   -3.1778    0.0000 H   0  0  0  0  0  0  0  0  0  0  0  0
    1.9137   -3.8780    0.0000 H   0  0  0  0  0  0  0  0  0  0  0  0
  1 22  1  0  0  0  0
  1 31  1  0  0  0  0
  2 39  1  0  0  0  0
  3 13  1  0  0  0  0
  3 18  1  0  0  0  0
  4 16  1  0  0  0  0
  4 56  1  0  0  0  0
  5 19  2  0  0  0  0
  6 20  2  0  0  0  0
  7 30  1  0  0  0  0
  7 34  1  0  0  0  0
  8 10  1  0  0  0  0
  8 20  1  0  0  0  0
  8 22  1  0  0  0  0
  9 22  2  0  0  0  0
  9 32  1  0  0  0  0
 10 11  1  0  0  0  0
 10 15  1  0  0  0  0
 10 42  1  0  0  0  0
 11 16  2  0  0  0  0
 11 19  1  0  0  0  0
 12 13  1  0  0  0  0
 12 14  1  0  0  0  0
 12 43  1  0  0  0  0
 12 44  1  0  0  0  0
 13 25  1  0  0  0  0
 13 45  1  0  0  0  0
 14 18  2  0  0  0  0
 14 21  1  0  0  0  0
 15 26  2  0  0  0  0
 15 27  1  0  0  0  0
 16 17  1  0  0  0  0
 17 21  2  0  0  0  0
 17 23  1  0  0  0  0
 18 24  1  0  0  0  0
 19 20  1  0  0  0  0
 21 46  1  0  0  0  0
 23 24  2  0  0  0  0
 23 47  1  0  0  0  0
 24 48  1  0  0  0  0
 25 49  1  0  0  0  0
 25 50  1  0  0  0  0
 25 51  1  0  0  0  0
 26 28  1  0  0  0  0
 26 52  1  0  0  0  0
 27 29  2  0  0  0  0
 27 53  1  0  0  0  0
 28 30  2  0  0  0  0
 28 54  1  0  0  0  0
 29 30  1  0  0  0  0
 29 55  1  0  0  0  0
 31 32  2  0  0  0  0
 31 36  1  0  0  0  0
 32 37  1  0  0  0  0
 33 34  1  0  0  0  0
 33 35  1  0  0  0  0
 33 57  1  0  0  0  0
 33 58  1  0  0  0  0
 34 59  1  0  0  0  0
 34 60  1  0  0  0  0
 35 38  1  0  0  0  0
 35 61  1  0  0  0  0
 35 62  1  0  0  0  0
 36 39  2  0  0  0  0
 36 63  1  0  0  0  0
 37 40  2  0  0  0  0
 37 64  1  0  0  0  0
 38 41  1  0  0  0  0
 38 65  1  0  0  0  0
 38 66  1  0  0  0  0
 39 40  1  0  0  0  0
 40 67  1  0  0  0  0
 41 68  1  0  0  0  0
 41 69  1  0  0  0  0
 41 70  1  0  0  0  0
M  END
> <PUBCHEM_COMPOUND_CID>
16446616

> <PUBCHEM_COMPOUND_CANONICALIZED>
1

> <PUBCHEM_CACTVS_COMPLEXITY>
1000

> <PUBCHEM_CACTVS_HBOND_ACCEPTOR>
8

> <PUBCHEM_CACTVS_HBOND_DONOR>
1

> <PUBCHEM_CACTVS_ROTATABLE_BOND>
8

> <PUBCHEM_CACTVS_SUBSKEYS>
AAADceB/OQBAAAAAAAAAAAAAAAAAAWLEgAAwYMAAAAAAAFgB9AAAHwQACAAADDzh3g4z17MIFgisA6VydACD+KlhKjhJmD2+bNiMJrrkubuGeCjsxxPI+Sec+P+OIAACAAAIAQBAAAQAABACAAAAAAAAAA==

> <PUBCHEM_IUPAC_OPENEYE_NAME>
(4Z)-1-(6-fluoro-1,3-benzothiazol-2-yl)-4-[hydroxy-(2-methyl-2,3-dihydrobenzofuran-5-yl)methylene]-5-(4-pentoxyphenyl)pyrrolidine-2,3-dione

> <PUBCHEM_IUPAC_CAS_NAME>
(4Z)-1-(6-fluoro-1,3-benzothiazol-2-yl)-4-[hydroxy-(2-methyl-2,3-dihydrobenzofuran-5-yl)methylidene]-5-(4-pentoxyphenyl)pyrrolidine-2,3-dione

> <PUBCHEM_IUPAC_NAME>
(4Z)-1-(6-fluoro-1,3-benzothiazol-2-yl)-4-[hydroxy-(2-methyl-2,3-dihydro-1-benzofuran-5-yl)methylidene]-5-(4-pentoxyphenyl)pyrrolidine-2,3-dione

> <PUBCHEM_IUPAC_SYSTEMATIC_NAME>
(4Z)-1-(6-fluoranyl-1,3-benzothiazol-2-yl)-4-[(2-methyl-2,3-dihydro-1-benzofuran-5-yl)-oxidanyl-methylidene]-5-(4-pentoxyphenyl)pyrrolidine-2,3-dione

> <PUBCHEM_IUPAC_TRADITIONAL_NAME>
(4Z)-5-(4-amoxyphenyl)-1-(6-fluoro-1,3-benzothiazol-2-yl)-4-[hydroxy-(2-methylcoumaran-5-yl)methylene]pyrrolidine-2,3-quinone

> <PUBCHEM_IUPAC_INCHI>
InChI=1S/C32H29FN2O5S/c1-3-4-5-14-39-23-10-6-19(7-11-23)28-27(29(36)20-8-13-25-21(16-20)15-18(2)40-25)30(37)31(38)35(28)32-34-24-12-9-22(33)17-26(24)41-32/h6-13,16-18,28,36H,3-5,14-15H2,1-2H3/b29-27-

> <PUBCHEM_IUPAC_INCHIKEY>
FBRGRXBTUSSDGA-OHYPFYFLSA-N

> <PUBCHEM_XLOGP3_AA>
7.6

> <PUBCHEM_EXACT_MASS>
572.178

> <PUBCHEM_MOLECULAR_FORMULA>
C32H29FN2O5S

> <PUBCHEM_MOLECULAR_WEIGHT>
572.651

> <PUBCHEM_OPENEYE_CAN_SMILES>
CCCCCOC1=CC=C(C=C1)C2C(=C(C3=CC4=C(C=C3)OC(C4)C)O)C(=O)C(=O)N2C5=NC6=C(S5)C=C(C=C6)F

> <PUBCHEM_OPENEYE_ISO_SMILES>
CCCCCOC1=CC=C(C=C1)C2/C(=C(\C3=CC4=C(C=C3)OC(C4)C)/O)/C(=O)C(=O)N2C5=NC6=C(S5)C=C(C=C6)F

> <PUBCHEM_CACTVS_TPSA>
117

> <PUBCHEM_MONOISOTOPIC_WEIGHT>
572.178

> <PUBCHEM_TOTAL_CHARGE>
0

> <PUBCHEM_HEAVY_ATOM_COUNT>
41

> <PUBCHEM_ATOM_DEF_STEREO_COUNT>
0

> <PUBCHEM_ATOM_UDEF_STEREO_COUNT>
2

> <PUBCHEM_BOND_DEF_STEREO_COUNT>
1

> <PUBCHEM_BOND_UDEF_STEREO_COUNT>
0

> <PUBCHEM_ISOTOPIC_ATOM_COUNT>
0

> <PUBCHEM_COMPONENT_COUNT>
1

> <PUBCHEM_CACTVS_TAUTO_COUNT>
3

> <PUBCHEM_COORDINATE_TYPE>
1
5
255

> <PUBCHEM_BONDANNOTATIONS>
1  22  8
1  31  8
10  15  3
13  25  3
14  18  8
14  21  8
15  26  8
15  27  8
17  21  8
17  23  8
18  24  8
23  24  8
26  28  8
27  29  8
28  30  8
29  30  8
31  32  8
31  36  8
32  37  8
36  39  8
37  40  8
39  40  8
9  22  8
9  32  8

$$$$
3793962
  -OEChem-11021604552D

 43 47  0     1  0  0  0  0  0999 V2000
    5.1414   -2.1759    0.0000 Br  0  0  0  0  0  0  0  0  0  0  0  0
    5.5443    1.7558    0.0000 S   0  0  0  0  0  0  0  0  0  0  0  0
    2.0000    1.9511    0.0000 F   0  0  0  0  0  0  0  0  0  0  0  0
    9.4758    2.0388    0.0000 O   0  0  0  0  0  0  0  0  0  0  0  0
    7.4067    2.7111    0.0000 O   0  0  0  0  0  0  0  0  0  0  0  0
    9.3712   -1.1312    0.0000 O   0  0  0  0  0  0  0  0  0  0  0  0
   10.5972    1.2482    0.0000 O   0  0  0  0  0  0  0  0  0  0  0  0
    7.1279    0.9511    0.0000 N   0  0  0  0  0  0  0  0  0  0  0  0
    5.5443    0.1463    0.0000 N   0  0  0  0  0  0  0  0  0  0  0  0
    7.7157    0.1420    0.0000 C   0  0  3  0  0  0  0  0  0  0  0  0
    8.6668    0.4511    0.0000 C   0  0  0  0  0  0  0  0  0  0  0  0
    7.4067   -0.8090    0.0000 C   0  0  0  0  0  0  0  0  0  0  0  0
    8.6668    1.4511    0.0000 C   0  0  0  0  0  0  0  0  0  0  0  0
    7.7157    1.7601    0.0000 C   0  0  0  0  0  0  0  0  0  0  0  0
    6.1279    0.9511    0.0000 C   0  0  0  0  0  0  0  0  0  0  0  0
    9.4758   -0.1367    0.0000 C   0  0  0  0  0  0  0  0  0  0  0  0
    6.4285   -1.0169    0.0000 C   0  0  0  0  0  0  0  0  0  0  0  0
    8.0758   -1.5522    0.0000 C   0  0  0  0  0  0  0  0  0  0  0  0
    4.5981    1.4511    0.0000 C   0  0  0  0  0  0  0  0  0  0  0  0
    4.5981    0.4511    0.0000 C   0  0  0  0  0  0  0  0  0  0  0  0
   10.3893    0.2700    0.0000 C   0  0  0  0  0  0  0  0  0  0  0  0
    6.1195   -1.9680    0.0000 C   0  0  0  0  0  0  0  0  0  0  0  0
    7.7668   -2.5032    0.0000 C   0  0  0  0  0  0  0  0  0  0  0  0
    6.7886   -2.7111    0.0000 C   0  0  0  0  0  0  0  0  0  0  0  0
    3.7320    1.9511    0.0000 C   0  0  0  0  0  0  0  0  0  0  0  0
    3.7320   -0.0489    0.0000 C   0  0  0  0  0  0  0  0  0  0  0  0
   11.2553   -0.2300    0.0000 C   0  0  0  0  0  0  0  0  0  0  0  0
    2.8660    1.4511    0.0000 C   0  0  0  0  0  0  0  0  0  0  0  0
    2.8660    0.4511    0.0000 C   0  0  0  0  0  0  0  0  0  0  0  0
   11.9985    0.4391    0.0000 C   0  0  0  0  0  0  0  0  0  0  0  0
   11.5917    1.3527    0.0000 C   0  0  0  0  0  0  0  0  0  0  0  0
    7.1033    0.0451    0.0000 H   0  0  0  0  0  0  0  0  0  0  0  0
    6.0137   -0.5562    0.0000 H   0  0  0  0  0  0  0  0  0  0  0  0
    8.6822   -1.4233    0.0000 H   0  0  0  0  0  0  0  0  0  0  0  0
    8.1816   -2.9640    0.0000 H   0  0  0  0  0  0  0  0  0  0  0  0
    9.4110    2.6554    0.0000 H   0  0  0  0  0  0  0  0  0  0  0  0
    6.5970   -3.3008    0.0000 H   0  0  0  0  0  0  0  0  0  0  0  0
    3.7320    2.5711    0.0000 H   0  0  0  0  0  0  0  0  0  0  0  0
    3.7320   -0.6689    0.0000 H   0  0  0  0  0  0  0  0  0  0  0  0
   11.3201   -0.8466    0.0000 H   0  0  0  0  0  0  0  0  0  0  0  0
    2.3291    0.1411    0.0000 H   0  0  0  0  0  0  0  0  0  0  0  0
   12.6049    0.3102    0.0000 H   0  0  0  0  0  0  0  0  0  0  0  0
   11.9017    1.8896    0.0000 H   0  0  0  0  0  0  0  0  0  0  0  0
  1 22  1  0  0  0  0
  2 15  1  0  0  0  0
  2 19  1  0  0  0  0
  3 28  1  0  0  0  0
  4 13  1  0  0  0  0
  4 36  1  0  0  0  0
  5 14  2  0  0  0  0
  6 16  2  0  0  0  0
  7 21  1  0  0  0  0
  7 31  1  0  0  0  0
  8 10  1  0  0  0  0
  8 14  1  0  0  0  0
  8 15  1  0  0  0  0
  9 15  2  0  0  0  0
  9 20  1  0  0  0  0
 10 11  1  0  0  0  0
 10 12  1  0  0  0  0
 10 32  1  0  0  0  0
 11 13  2  0  0  0  0
 11 16  1  0  0  0  0
 12 17  2  0  0  0  0
 12 18  1  0  0  0  0
 13 14  1  0  0  0  0
 16 21  1  0  0  0  0
 17 22  1  0  0  0  0
 17 33  1  0  0  0  0
 18 23  2  0  0  0  0
 18 34  1  0  0  0  0
 19 20  2  0  0  0  0
 19 25  1  0  0  0  0
 20 26  1  0  0  0  0
 21 27  2  0  0  0  0
 22 24  2  0  0  0  0
 23 24  1  0  0  0  0
 23 35  1  0  0  0  0
 24 37  1  0  0  0  0
 25 28  2  0  0  0  0
 25 38  1  0  0  0  0
 26 29  2  0  0  0  0
 26 39  1  0  0  0  0
 27 30  1  0  0  0  0
 27 40  1  0  0  0  0
 28 29  1  0  0  0  0
 29 41  1  0  0  0  0
 30 31  2  0  0  0  0
 30 42  1  0  0  0  0
 31 43  1  0  0  0  0
M  END
> <PUBCHEM_COMPOUND_CID>
3793962

> <PUBCHEM_COMPOUND_CANONICALIZED>
1

> <PUBCHEM_CACTVS_COMPLEXITY>
783

> <PUBCHEM_CACTVS_HBOND_ACCEPTOR>
7

> <PUBCHEM_CACTVS_HBOND_DONOR>
1

> <PUBCHEM_CACTVS_ROTATABLE_BOND>
4

> <PUBCHEM_CACTVS_SUBSKEYS>
AAADccB7OQBAEAAAAAAAAAAAAAAAAWJEAAAwYAAAAAAAAFgB/AAAHwRACAABrCzh3g4x1bMIFkisA61y9AKD+KllKjxJmD1+bPiOJrrkvZ+GOSjsxxPY67e8zvCuAAAAEAAAAQAAAAAgAAACAAAAAAAAAA==

> <PUBCHEM_IUPAC_OPENEYE_NAME>
2-(3-bromophenyl)-1-(6-fluoro-1,3-benzothiazol-2-yl)-3-(furan-2-carbonyl)-4-hydroxy-2H-pyrrol-5-one

> <PUBCHEM_IUPAC_CAS_NAME>
2-(3-bromophenyl)-1-(6-fluoro-1,3-benzothiazol-2-yl)-3-[2-furanyl(oxo)methyl]-4-hydroxy-2H-pyrrol-5-one

> <PUBCHEM_IUPAC_NAME>
2-(3-bromophenyl)-1-(6-fluoro-1,3-benzothiazol-2-yl)-3-(furan-2-carbonyl)-4-hydroxy-2H-pyrrol-5-one

> <PUBCHEM_IUPAC_SYSTEMATIC_NAME>
2-(3-bromophenyl)-1-(6-fluoranyl-1,3-benzothiazol-2-yl)-3-(furan-2-ylcarbonyl)-4-oxidanyl-2H-pyrrol-5-one

> <PUBCHEM_IUPAC_TRADITIONAL_NAME>
5-(3-bromophenyl)-1-(6-fluoro-1,3-benzothiazol-2-yl)-4-(2-furoyl)-3-hydroxy-3-pyrrolin-2-one

> <PUBCHEM_IUPAC_INCHI>
InChI=1S/C22H12BrFN2O4S/c23-12-4-1-3-11(9-12)18-17(19(27)15-5-2-8-30-15)20(28)21(29)26(18)22-25-14-7-6-13(24)10-16(14)31-22/h1-10,18,28H

> <PUBCHEM_IUPAC_INCHIKEY>
XXXHOULYSRSLEN-UHFFFAOYSA-N

> <PUBCHEM_XLOGP3_AA>
5.5

> <PUBCHEM_EXACT_MASS>
497.969

> <PUBCHEM_MOLECULAR_FORMULA>
C22H12BrFN2O4S

> <PUBCHEM_MOLECULAR_WEIGHT>
499.31

> <PUBCHEM_OPENEYE_CAN_SMILES>
C1=CC(=CC(=C1)Br)C2C(=C(C(=O)N2C3=NC4=C(S3)C=C(C=C4)F)O)C(=O)C5=CC=CO5

> <PUBCHEM_OPENEYE_ISO_SMILES>
C1=CC(=CC(=C1)Br)C2C(=C(C(=O)N2C3=NC4=C(S3)C=C(C=C4)F)O)C(=O)C5=CC=CO5

> <PUBCHEM_CACTVS_TPSA>
112

> <PUBCHEM_MONOISOTOPIC_WEIGHT>
497.969

> <PUBCHEM_TOTAL_CHARGE>
0

> <PUBCHEM_HEAVY_ATOM_COUNT>
31

> <PUBCHEM_ATOM_DEF_STEREO_COUNT>
0

> <PUBCHEM_ATOM_UDEF_STEREO_COUNT>
1

> <PUBCHEM_BOND_DEF_STEREO_COUNT>
0

> <PUBCHEM_BOND_UDEF_STEREO_COUNT>
0

> <PUBCHEM_ISOTOPIC_ATOM_COUNT>
0

> <PUBCHEM_COMPONENT_COUNT>
1

> <PUBCHEM_CACTVS_TAUTO_COUNT>
3

> <PUBCHEM_COORDINATE_TYPE>
1
5
255

> <PUBCHEM_BONDANNOTATIONS>
10  12  3
12  17  8
12  18  8
17  22  8
18  23  8
19  20  8
19  25  8
2  15  8
2  19  8
20  26  8
21  27  8
22  24  8
23  24  8
25  28  8
26  29  8
27  30  8
28  29  8
30  31  8
7  21  8
7  31  8
9  15  8
9  20  8

$$$$
3777223
  -OEChem-11021604552D

 46 50  0     1  0  0  0  0  0999 V2000
    5.1414   -2.1759    0.0000 Br  0  0  0  0  0  0  0  0  0  0  0  0
    5.5443    1.7558    0.0000 S   0  0  0  0  0  0  0  0  0  0  0  0
    9.4758    2.0388    0.0000 O   0  0  0  0  0  0  0  0  0  0  0  0
    7.4067    2.7111    0.0000 O   0  0  0  0  0  0  0  0  0  0  0  0
    9.3712   -1.1312    0.0000 O   0  0  0  0  0  0  0  0  0  0  0  0
   10.5972    1.2482    0.0000 O   0  0  0  0  0  0  0  0  0  0  0  0
    7.1279    0.9511    0.0000 N   0  0  0  0  0  0  0  0  0  0  0  0
    5.5443    0.1463    0.0000 N   0  0  0  0  0  0  0  0  0  0  0  0
    7.7157    0.1420    0.0000 C   0  0  3  0  0  0  0  0  0  0  0  0
    8.6668    0.4511    0.0000 C   0  0  0  0  0  0  0  0  0  0  0  0
    7.4067   -0.8090    0.0000 C   0  0  0  0  0  0  0  0  0  0  0  0
    8.6668    1.4511    0.0000 C   0  0  0  0  0  0  0  0  0  0  0  0
    7.7157    1.7601    0.0000 C   0  0  0  0  0  0  0  0  0  0  0  0
    6.1279    0.9511    0.0000 C   0  0  0  0  0  0  0  0  0  0  0  0
    9.4758   -0.1367    0.0000 C   0  0  0  0  0  0  0  0  0  0  0  0
    6.4285   -1.0169    0.0000 C   0  0  0  0  0  0  0  0  0  0  0  0
    8.0758   -1.5522    0.0000 C   0  0  0  0  0  0  0  0  0  0  0  0
    4.5981    1.4511    0.0000 C   0  0  0  0  0  0  0  0  0  0  0  0
    4.5981    0.4511    0.0000 C   0  0  0  0  0  0  0  0  0  0  0  0
   10.3893    0.2700    0.0000 C   0  0  0  0  0  0  0  0  0  0  0  0
    6.1195   -1.9680    0.0000 C   0  0  0  0  0  0  0  0  0  0  0  0
    7.7668   -2.5032    0.0000 C   0  0  0  0  0  0  0  0  0  0  0  0
    3.7320    1.9511    0.0000 C   0  0  0  0  0  0  0  0  0  0  0  0
    6.7886   -2.7111    0.0000 C   0  0  0  0  0  0  0  0  0  0  0  0
    3.7320   -0.0489    0.0000 C   0  0  0  0  0  0  0  0  0  0  0  0
    2.8660    1.4511    0.0000 C   0  0  0  0  0  0  0  0  0  0  0  0
    2.8660    0.4511    0.0000 C   0  0  0  0  0  0  0  0  0  0  0  0
   11.2553   -0.2300    0.0000 C   0  0  0  0  0  0  0  0  0  0  0  0
    2.0000    1.9511    0.0000 C   0  0  0  0  0  0  0  0  0  0  0  0
   11.9985    0.4391    0.0000 C   0  0  0  0  0  0  0  0  0  0  0  0
   11.5917    1.3527    0.0000 C   0  0  0  0  0  0  0  0  0  0  0  0
    6.8762    0.0091    0.0000 H   0  0  0  0  0  0  0  0  0  0  0  0
    6.0137   -0.5562    0.0000 H   0  0  0  0  0  0  0  0  0  0  0  0
    8.6822   -1.4233    0.0000 H   0  0  0  0  0  0  0  0  0  0  0  0
    8.1816   -2.9640    0.0000 H   0  0  0  0  0  0  0  0  0  0  0  0
    9.4110    2.6554    0.0000 H   0  0  0  0  0  0  0  0  0  0  0  0
    3.7320    2.5711    0.0000 H   0  0  0  0  0  0  0  0  0  0  0  0
    3.7320   -0.6689    0.0000 H   0  0  0  0  0  0  0  0  0  0  0  0
    6.5970   -3.3008    0.0000 H   0  0  0  0  0  0  0  0  0  0  0  0
    2.3291    0.1411    0.0000 H   0  0  0  0  0  0  0  0  0  0  0  0
   11.3201   -0.8466    0.0000 H   0  0  0  0  0  0  0  0  0  0  0  0
    2.3100    2.4880    0.0000 H   0  0  0  0  0  0  0  0  0  0  0  0
    1.4631    2.2611    0.0000 H   0  0  0  0  0  0  0  0  0  0  0  0
    1.6900    1.4141    0.0000 H   0  0  0  0  0  0  0  0  0  0  0  0
   12.6049    0.3102    0.0000 H   0  0  0  0  0  0  0  0  0  0  0  0
   11.9017    1.8896    0.0000 H   0  0  0  0  0  0  0  0  0  0  0  0
  1 21  1  0  0  0  0
  2 14  1  0  0  0  0
  2 18  1  0  0  0  0
  3 12  1  0  0  0  0
  3 36  1  0  0  0  0
  4 13  2  0  0  0  0
  5 15  2  0  0  0  0
  6 20  1  0  0  0  0
  6 31  1  0  0  0  0
  7  9  1  0  0  0  0
  7 13  1  0  0  0  0
  7 14  1  0  0  0  0
  8 14  2  0  0  0  0
  8 19  1  0  0  0  0
  9 10  1  0  0  0  0
  9 11  1  0  0  0  0
  9 32  1  0  0  0  0
 10 12  2  0  0  0  0
 10 15  1  0  0  0  0
 11 16  2  0  0  0  0
 11 17  1  0  0  0  0
 12 13  1  0  0  0  0
 15 20  1  0  0  0  0
 16 21  1  0  0  0  0
 16 33  1  0  0  0  0
 17 22  2  0  0  0  0
 17 34  1  0  0  0  0
 18 19  2  0  0  0  0
 18 23  1  0  0  0  0
 19 25  1  0  0  0  0
 20 28  2  0  0  0  0
 21 24  2  0  0  0  0
 22 24  1  0  0  0  0
 22 35  1  0  0  0  0
 23 26  2  0  0  0  0
 23 37  1  0  0  0  0
 24 39  1  0  0  0  0
 25 27  2  0  0  0  0
 25 38  1  0  0  0  0
 26 27  1  0  0  0  0
 26 29  1  0  0  0  0
 27 40  1  0  0  0  0
 28 30  1  0  0  0  0
 28 41  1  0  0  0  0
 29 42  1  0  0  0  0
 29 43  1  0  0  0  0
 29 44  1  0  0  0  0
 30 31  2  0  0  0  0
 30 45  1  0  0  0  0
 31 46  1  0  0  0  0
M  END
> <PUBCHEM_COMPOUND_CID>
3777223

> <PUBCHEM_COMPOUND_CANONICALIZED>
1

> <PUBCHEM_CACTVS_COMPLEXITY>
777

> <PUBCHEM_CACTVS_HBOND_ACCEPTOR>
6

> <PUBCHEM_CACTVS_HBOND_DONOR>
1

> <PUBCHEM_CACTVS_ROTATABLE_BOND>
4

> <PUBCHEM_CACTVS_SUBSKEYS>
AAADccB7OABAEAAAAAAAAAAAAAAAAWJEAAAwYAAAAAAAAFgB/AAAHgRACAABrCzh3gYz1bMIFkisA61y9AKD+KllKjxJmD1+bPiOJrrkvZ+GOSjsxxPY67e8zvCuCAAAkAAAAQAQAAEgAAACAAAAAAAAAA==

> <PUBCHEM_IUPAC_OPENEYE_NAME>
2-(3-bromophenyl)-3-(furan-2-carbonyl)-4-hydroxy-1-(6-methyl-1,3-benzothiazol-2-yl)-2H-pyrrol-5-one

> <PUBCHEM_IUPAC_CAS_NAME>
2-(3-bromophenyl)-3-[2-furanyl(oxo)methyl]-4-hydroxy-1-(6-methyl-1,3-benzothiazol-2-yl)-2H-pyrrol-5-one

> <PUBCHEM_IUPAC_NAME>
2-(3-bromophenyl)-3-(furan-2-carbonyl)-4-hydroxy-1-(6-methyl-1,3-benzothiazol-2-yl)-2H-pyrrol-5-one

> <PUBCHEM_IUPAC_SYSTEMATIC_NAME>
2-(3-bromophenyl)-3-(furan-2-ylcarbonyl)-1-(6-methyl-1,3-benzothiazol-2-yl)-4-oxidanyl-2H-pyrrol-5-one

> <PUBCHEM_IUPAC_TRADITIONAL_NAME>
5-(3-bromophenyl)-4-(2-furoyl)-3-hydroxy-1-(6-methyl-1,3-benzothiazol-2-yl)-3-pyrrolin-2-one

> <PUBCHEM_IUPAC_INCHI>
InChI=1S/C23H15BrN2O4S/c1-12-7-8-15-17(10-12)31-23(25-15)26-19(13-4-2-5-14(24)11-13)18(21(28)22(26)29)20(27)16-6-3-9-30-16/h2-11,19,28H,1H3

> <PUBCHEM_IUPAC_INCHIKEY>
GQIXTXAGPAGDLJ-UHFFFAOYSA-N

> <PUBCHEM_XLOGP3_AA>
5.8

> <PUBCHEM_EXACT_MASS>
493.994

> <PUBCHEM_MOLECULAR_FORMULA>
C23H15BrN2O4S

> <PUBCHEM_MOLECULAR_WEIGHT>
495.347

> <PUBCHEM_OPENEYE_CAN_SMILES>
CC1=CC2=C(C=C1)N=C(S2)N3C(C(=C(C3=O)O)C(=O)C4=CC=CO4)C5=CC(=CC=C5)Br

> <PUBCHEM_OPENEYE_ISO_SMILES>
CC1=CC2=C(C=C1)N=C(S2)N3C(C(=C(C3=O)O)C(=O)C4=CC=CO4)C5=CC(=CC=C5)Br

> <PUBCHEM_CACTVS_TPSA>
112

> <PUBCHEM_MONOISOTOPIC_WEIGHT>
493.994

> <PUBCHEM_TOTAL_CHARGE>
0

> <PUBCHEM_HEAVY_ATOM_COUNT>
31

> <PUBCHEM_ATOM_DEF_STEREO_COUNT>
0

> <PUBCHEM_ATOM_UDEF_STEREO_COUNT>
1

> <PUBCHEM_BOND_DEF_STEREO_COUNT>
0

> <PUBCHEM_BOND_UDEF_STEREO_COUNT>
0

> <PUBCHEM_ISOTOPIC_ATOM_COUNT>
0

> <PUBCHEM_COMPONENT_COUNT>
1

> <PUBCHEM_CACTVS_TAUTO_COUNT>
3

> <PUBCHEM_COORDINATE_TYPE>
1
5
255

> <PUBCHEM_BONDANNOTATIONS>
11  16  8
11  17  8
16  21  8
17  22  8
18  19  8
18  23  8
19  25  8
2  14  8
2  18  8
20  28  8
21  24  8
22  24  8
23  26  8
25  27  8
26  27  8
28  30  8
30  31  8
6  20  8
6  31  8
8  14  8
8  19  8
9  32  3

$$$$
4271048
  -OEChem-11021604552D

 53 57  0     1  0  0  0  0  0999 V2000
    5.5443    3.0784    0.0000 S   0  0  0  0  0  0  0  0  0  0  0  0
   10.5972    2.5708    0.0000 S   0  0  0  0  0  0  0  0  0  0  0  0
    9.4758    3.3615    0.0000 O   0  0  0  0  0  0  0  0  0  0  0  0
    7.4067    4.0338    0.0000 O   0  0  0  0  0  0  0  0  0  0  0  0
    9.3712    0.1914    0.0000 O   0  0  0  0  0  0  0  0  0  0  0  0
    6.4796   -2.3396    0.0000 O   0  0  0  0  0  0  0  0  0  0  0  0
    7.1279    2.2737    0.0000 N   0  0  0  0  0  0  0  0  0  0  0  0
    5.5443    1.4690    0.0000 N   0  0  0  0  0  0  0  0  0  0  0  0
    7.7157    1.4647    0.0000 C   0  0  3  0  0  0  0  0  0  0  0  0
    8.6668    1.7737    0.0000 C   0  0  0  0  0  0  0  0  0  0  0  0
    7.4067    0.5136    0.0000 C   0  0  0  0  0  0  0  0  0  0  0  0
    8.6668    2.7737    0.0000 C   0  0  0  0  0  0  0  0  0  0  0  0
    7.7157    3.0827    0.0000 C   0  0  0  0  0  0  0  0  0  0  0  0
    6.1279    2.2737    0.0000 C   0  0  0  0  0  0  0  0  0  0  0  0
    9.4758    1.1859    0.0000 C   0  0  0  0  0  0  0  0  0  0  0  0
    6.4285    0.3057    0.0000 C   0  0  0  0  0  0  0  0  0  0  0  0
    8.0758   -0.2295    0.0000 C   0  0  0  0  0  0  0  0  0  0  0  0
    4.5981    2.7737    0.0000 C   0  0  0  0  0  0  0  0  0  0  0  0
    4.5981    1.7737    0.0000 C   0  0  0  0  0  0  0  0  0  0  0  0
    6.1195   -0.6454    0.0000 C   0  0  0  0  0  0  0  0  0  0  0  0
    7.7668   -1.1806    0.0000 C   0  0  0  0  0  0  0  0  0  0  0  0
   10.3893    1.5926    0.0000 C   0  0  0  0  0  0  0  0  0  0  0  0
    6.7886   -1.3885    0.0000 C   0  0  0  0  0  0  0  0  0  0  0  0
    3.7320    3.2737    0.0000 C   0  0  0  0  0  0  0  0  0  0  0  0
    3.7320    1.2737    0.0000 C   0  0  0  0  0  0  0  0  0  0  0  0
    2.8660    2.7737    0.0000 C   0  0  0  0  0  0  0  0  0  0  0  0
    2.8660    1.7737    0.0000 C   0  0  0  0  0  0  0  0  0  0  0  0
   11.2553    1.0926    0.0000 C   0  0  0  0  0  0  0  0  0  0  0  0
    2.0000    3.2737    0.0000 C   0  0  0  0  0  0  0  0  0  0  0  0
   11.9985    1.7618    0.0000 C   0  0  0  0  0  0  0  0  0  0  0  0
   11.5917    2.6753    0.0000 C   0  0  0  0  0  0  0  0  0  0  0  0
    7.1488   -3.0827    0.0000 C   0  0  0  0  0  0  0  0  0  0  0  0
    6.8397   -4.0338    0.0000 C   0  0  0  0  0  0  0  0  0  0  0  0
    7.1033    1.3677    0.0000 H   0  0  0  0  0  0  0  0  0  0  0  0
    6.0137    0.7664    0.0000 H   0  0  0  0  0  0  0  0  0  0  0  0
    8.6822   -0.1006    0.0000 H   0  0  0  0  0  0  0  0  0  0  0  0
    5.5131   -0.7743    0.0000 H   0  0  0  0  0  0  0  0  0  0  0  0
    8.1816   -1.6413    0.0000 H   0  0  0  0  0  0  0  0  0  0  0  0
    9.4110    3.9781    0.0000 H   0  0  0  0  0  0  0  0  0  0  0  0
    3.7320    3.8937    0.0000 H   0  0  0  0  0  0  0  0  0  0  0  0
    3.7320    0.6537    0.0000 H   0  0  0  0  0  0  0  0  0  0  0  0
    2.3291    1.4637    0.0000 H   0  0  0  0  0  0  0  0  0  0  0  0
   11.3201    0.4760    0.0000 H   0  0  0  0  0  0  0  0  0  0  0  0
    2.3100    3.8106    0.0000 H   0  0  0  0  0  0  0  0  0  0  0  0
    1.4631    3.5837    0.0000 H   0  0  0  0  0  0  0  0  0  0  0  0
    1.6900    2.7367    0.0000 H   0  0  0  0  0  0  0  0  0  0  0  0
   12.6049    1.6329    0.0000 H   0  0  0  0  0  0  0  0  0  0  0  0
   11.9017    3.2122    0.0000 H   0  0  0  0  0  0  0  0  0  0  0  0
    7.6962   -3.3738    0.0000 H   0  0  0  0  0  0  0  0  0  0  0  0
    7.5305   -2.5941    0.0000 H   0  0  0  0  0  0  0  0  0  0  0  0
    6.2501   -3.8422    0.0000 H   0  0  0  0  0  0  0  0  0  0  0  0
    6.6482   -4.6234    0.0000 H   0  0  0  0  0  0  0  0  0  0  0  0
    7.4294   -4.2254    0.0000 H   0  0  0  0  0  0  0  0  0  0  0  0
  1 14  1  0  0  0  0
  1 18  1  0  0  0  0
  2 22  1  0  0  0  0
  2 31  1  0  0  0  0
  3 12  1  0  0  0  0
  3 39  1  0  0  0  0
  4 13  2  0  0  0  0
  5 15  2  0  0  0  0
  6 23  1  0  0  0  0
  6 32  1  0  0  0  0
  7  9  1  0  0  0  0
  7 13  1  0  0  0  0
  7 14  1  0  0  0  0
  8 14  2  0  0  0  0
  8 19  1  0  0  0  0
  9 10  1  0  0  0  0
  9 11  1  0  0  0  0
  9 34  1  0  0  0  0
 10 12  2  0  0  0  0
 10 15  1  0  0  0  0
 11 16  2  0  0  0  0
 11 17  1  0  0  0  0
 12 13  1  0  0  0  0
 15 22  1  0  0  0  0
 16 20  1  0  0  0  0
 16 35  1  0  0  0  0
 17 21  2  0  0  0  0
 17 36  1  0  0  0  0
 18 19  2  0  0  0  0
 18 24  1  0  0  0  0
 19 25  1  0  0  0  0
 20 23  2  0  0  0  0
 20 37  1  0  0  0  0
 21 23  1  0  0  0  0
 21 38  1  0  0  0  0
 22 28  2  0  0  0  0
 24 26  2  0  0  0  0
 24 40  1  0  0  0  0
 25 27  2  0  0  0  0
 25 41  1  0  0  0  0
 26 27  1  0  0  0  0
 26 29  1  0  0  0  0
 27 42  1  0  0  0  0
 28 30  1  0  0  0  0
 28 43  1  0  0  0  0
 29 44  1  0  0  0  0
 29 45  1  0  0  0  0
 29 46  1  0  0  0  0
 30 31  2  0  0  0  0
 30 47  1  0  0  0  0
 31 48  1  0  0  0  0
 32 33  1  0  0  0  0
 32 49  1  0  0  0  0
 32 50  1  0  0  0  0
 33 51  1  0  0  0  0
 33 52  1  0  0  0  0
 33 53  1  0  0  0  0
M  END
> <PUBCHEM_COMPOUND_CID>
4271048

> <PUBCHEM_COMPOUND_CANONICALIZED>
1

> <PUBCHEM_CACTVS_COMPLEXITY>
797

> <PUBCHEM_CACTVS_HBOND_ACCEPTOR>
7

> <PUBCHEM_CACTVS_HBOND_DONOR>
1

> <PUBCHEM_CACTVS_ROTATABLE_BOND>
6

> <PUBCHEM_CACTVS_SUBSKEYS>
AAADceB7OABgAAAAAAAAAAAAAAAAAWJEAAAwYAAAAAAAAFgB/AAAHgQACAAADCzl3gaz17MIFgisA6VydAKD+KllKjhJmD1+bNiOJrrkvZuGOSjsxxP46aeY2OOOKAAAgAAAAQBQAAEAAAACAAAAAAAAAA==

> <PUBCHEM_IUPAC_OPENEYE_NAME>
2-(4-ethoxyphenyl)-4-hydroxy-1-(6-methyl-1,3-benzothiazol-2-yl)-3-(thiophene-2-carbonyl)-2H-pyrrol-5-one

> <PUBCHEM_IUPAC_CAS_NAME>
2-(4-ethoxyphenyl)-4-hydroxy-1-(6-methyl-1,3-benzothiazol-2-yl)-3-[oxo(thiophen-2-yl)methyl]-2H-pyrrol-5-one

> <PUBCHEM_IUPAC_NAME>
2-(4-ethoxyphenyl)-4-hydroxy-1-(6-methyl-1,3-benzothiazol-2-yl)-3-(thiophene-2-carbonyl)-2H-pyrrol-5-one

> <PUBCHEM_IUPAC_SYSTEMATIC_NAME>
2-(4-ethoxyphenyl)-1-(6-methyl-1,3-benzothiazol-2-yl)-4-oxidanyl-3-thiophen-2-ylcarbonyl-2H-pyrrol-5-one

> <PUBCHEM_IUPAC_TRADITIONAL_NAME>
3-hydroxy-1-(6-methyl-1,3-benzothiazol-2-yl)-5-p-phenetyl-4-(2-thenoyl)-3-pyrrolin-2-one

> <PUBCHEM_IUPAC_INCHI>
InChI=1S/C25H20N2O4S2/c1-3-31-16-9-7-15(8-10-16)21-20(22(28)18-5-4-12-32-18)23(29)24(30)27(21)25-26-17-11-6-14(2)13-19(17)33-25/h4-13,21,29H,3H2,1-2H3

> <PUBCHEM_IUPAC_INCHIKEY>
JQZXCEAZVGFHDF-UHFFFAOYSA-N

> <PUBCHEM_XLOGP3_AA>
6.1

> <PUBCHEM_EXACT_MASS>
476.086

> <PUBCHEM_MOLECULAR_FORMULA>
C25H20N2O4S2

> <PUBCHEM_MOLECULAR_WEIGHT>
476.565

> <PUBCHEM_OPENEYE_CAN_SMILES>
CCOC1=CC=C(C=C1)C2C(=C(C(=O)N2C3=NC4=C(S3)C=C(C=C4)C)O)C(=O)C5=CC=CS5

> <PUBCHEM_OPENEYE_ISO_SMILES>
CCOC1=CC=C(C=C1)C2C(=C(C(=O)N2C3=NC4=C(S3)C=C(C=C4)C)O)C(=O)C5=CC=CS5

> <PUBCHEM_CACTVS_TPSA>
136

> <PUBCHEM_MONOISOTOPIC_WEIGHT>
476.086

> <PUBCHEM_TOTAL_CHARGE>
0

> <PUBCHEM_HEAVY_ATOM_COUNT>
33

> <PUBCHEM_ATOM_DEF_STEREO_COUNT>
0

> <PUBCHEM_ATOM_UDEF_STEREO_COUNT>
1

> <PUBCHEM_BOND_DEF_STEREO_COUNT>
0

> <PUBCHEM_BOND_UDEF_STEREO_COUNT>
0

> <PUBCHEM_ISOTOPIC_ATOM_COUNT>
0

> <PUBCHEM_COMPONENT_COUNT>
1

> <PUBCHEM_CACTVS_TAUTO_COUNT>
3

> <PUBCHEM_COORDINATE_TYPE>
1
5
255

> <PUBCHEM_BONDANNOTATIONS>
1  14  8
1  18  8
11  16  8
11  17  8
16  20  8
17  21  8
18  19  8
18  24  8
19  25  8
2  22  8
2  31  8
20  23  8
21  23  8
22  28  8
24  26  8
25  27  8
26  27  8
28  30  8
30  31  8
8  14  8
8  19  8
9  11  3

$$$$
118729145
  -OEChem-11021604552D

 68 72  0     1  0  0  0  0  0999 V2000
    7.2764    2.4092    0.0000 S   0  0  0  0  0  0  0  0  0  0  0  0
    9.1387    3.3645    0.0000 O   0  0  0  0  0  0  0  0  0  0  0  0
   11.2078    2.6922    0.0000 O   0  0  0  0  0  0  0  0  0  0  0  0
   12.1214    0.9234    0.0000 O   0  0  0  0  0  0  0  0  0  0  0  0
    3.7320    2.6044    0.0000 O   0  0  0  0  0  0  0  0  0  0  0  0
    8.8600    1.6044    0.0000 N   0  0  0  0  0  0  0  0  0  0  0  0
    7.2764    0.7997    0.0000 N   0  0  0  0  0  0  0  0  0  0  0  0
    9.4477    0.7954    0.0000 C   0  0  3  0  0  0  0  0  0  0  0  0
    6.9852   -2.3567    0.0000 C   0  0  0  0  0  0  0  0  0  0  0  0
    8.8321    0.0074    0.0000 C   0  0  0  0  0  0  0  0  0  0  0  0
    7.6008   -1.5687    0.0000 C   0  0  0  0  0  0  0  0  0  0  0  0
   10.3988    1.1044    0.0000 C   0  0  0  0  0  0  0  0  0  0  0  0
    9.2067   -0.9198    0.0000 C   0  0  0  0  0  0  0  0  0  0  0  0
    7.8418    0.1466    0.0000 C   0  0  0  0  0  0  0  0  0  0  0  0
    8.5910   -1.7078    0.0000 C   0  0  0  0  0  0  0  0  0  0  0  0
    7.2262   -0.6414    0.0000 C   0  0  0  0  0  0  0  0  0  0  0  0
    9.4477    2.4134    0.0000 C   0  0  0  0  0  0  0  0  0  0  0  0
   10.3988    2.1044    0.0000 C   0  0  0  0  0  0  0  0  0  0  0  0
    6.3695   -3.1447    0.0000 C   0  0  0  0  0  0  0  0  0  0  0  0
    6.1971   -1.7410    0.0000 C   0  0  0  0  0  0  0  0  0  0  0  0
    7.7732   -2.9723    0.0000 C   0  0  0  0  0  0  0  0  0  0  0  0
    7.8600    1.6044    0.0000 C   0  0  0  0  0  0  0  0  0  0  0  0
   11.2078    0.5167    0.0000 C   0  0  0  0  0  0  0  0  0  0  0  0
   11.4498   -0.4536    0.0000 C   0  0  0  0  0  0  0  0  0  0  0  0
    6.3301    2.1044    0.0000 C   0  0  0  0  0  0  0  0  0  0  0  0
    6.3301    1.1044    0.0000 C   0  0  0  0  0  0  0  0  0  0  0  0
   12.4110   -0.7293    0.0000 C   0  0  0  0  0  0  0  0  0  0  0  0
   10.7304   -1.1483    0.0000 C   0  0  0  0  0  0  0  0  0  0  0  0
    5.4641    2.6044    0.0000 C   0  0  0  0  0  0  0  0  0  0  0  0
    5.4641    0.6044    0.0000 C   0  0  0  0  0  0  0  0  0  0  0  0
   12.6529   -1.6996    0.0000 C   0  0  0  0  0  0  0  0  0  0  0  0
   10.9724   -2.1186    0.0000 C   0  0  0  0  0  0  0  0  0  0  0  0
    4.5981    2.1044    0.0000 C   0  0  0  0  0  0  0  0  0  0  0  0
   11.9337   -2.3942    0.0000 C   0  0  0  0  0  0  0  0  0  0  0  0
    4.5981    1.1044    0.0000 C   0  0  0  0  0  0  0  0  0  0  0  0
   12.1756   -3.3645    0.0000 C   0  0  0  0  0  0  0  0  0  0  0  0
    2.8660    2.1044    0.0000 C   0  0  0  0  0  0  0  0  0  0  0  0
    2.0000    2.6044    0.0000 C   0  0  0  0  0  0  0  0  0  0  0  0
    9.8034    0.2876    0.0000 H   0  0  0  0  0  0  0  0  0  0  0  0
    9.8206   -1.0061    0.0000 H   0  0  0  0  0  0  0  0  0  0  0  0
    7.6096    0.7214    0.0000 H   0  0  0  0  0  0  0  0  0  0  0  0
    8.8233   -2.2826    0.0000 H   0  0  0  0  0  0  0  0  0  0  0  0
    6.6122   -0.5552    0.0000 H   0  0  0  0  0  0  0  0  0  0  0  0
    7.3915   -3.4609    0.0000 H   0  0  0  0  0  0  0  0  0  0  0  0
    5.8809   -2.7630    0.0000 H   0  0  0  0  0  0  0  0  0  0  0  0
    5.9878   -3.6332    0.0000 H   0  0  0  0  0  0  0  0  0  0  0  0
    6.8580   -3.5264    0.0000 H   0  0  0  0  0  0  0  0  0  0  0  0
    6.5788   -1.2524    0.0000 H   0  0  0  0  0  0  0  0  0  0  0  0
    5.7085   -1.3593    0.0000 H   0  0  0  0  0  0  0  0  0  0  0  0
    5.8154   -2.2296    0.0000 H   0  0  0  0  0  0  0  0  0  0  0  0
    8.2618   -3.3540    0.0000 H   0  0  0  0  0  0  0  0  0  0  0  0
    8.1549   -2.4838    0.0000 H   0  0  0  0  0  0  0  0  0  0  0  0
   12.8570   -0.2986    0.0000 H   0  0  0  0  0  0  0  0  0  0  0  0
   10.1344   -0.9774    0.0000 H   0  0  0  0  0  0  0  0  0  0  0  0
   12.6230    0.5590    0.0000 H   0  0  0  0  0  0  0  0  0  0  0  0
    5.4641    3.2244    0.0000 H   0  0  0  0  0  0  0  0  0  0  0  0
    5.4641   -0.0156    0.0000 H   0  0  0  0  0  0  0  0  0  0  0  0
   13.2489   -1.8705    0.0000 H   0  0  0  0  0  0  0  0  0  0  0  0
   10.5264   -2.5493    0.0000 H   0  0  0  0  0  0  0  0  0  0  0  0
    4.0611    0.7944    0.0000 H   0  0  0  0  0  0  0  0  0  0  0  0
   11.5740   -3.5145    0.0000 H   0  0  0  0  0  0  0  0  0  0  0  0
   12.3256   -3.9661    0.0000 H   0  0  0  0  0  0  0  0  0  0  0  0
   12.7772   -3.2145    0.0000 H   0  0  0  0  0  0  0  0  0  0  0  0
    2.4675    1.6295    0.0000 H   0  0  0  0  0  0  0  0  0  0  0  0
    3.2646    1.6295    0.0000 H   0  0  0  0  0  0  0  0  0  0  0  0
    2.3100    3.1414    0.0000 H   0  0  0  0  0  0  0  0  0  0  0  0
    1.4631    2.9144    0.0000 H   0  0  0  0  0  0  0  0  0  0  0  0
    1.6900    2.0675    0.0000 H   0  0  0  0  0  0  0  0  0  0  0  0
  1 22  1  0  0  0  0
  1 25  1  0  0  0  0
  2 17  2  0  0  0  0
  3 18  2  0  0  0  0
  4 23  1  0  0  0  0
  4 55  1  0  0  0  0
  5 33  1  0  0  0  0
  5 37  1  0  0  0  0
  6  8  1  0  0  0  0
  6 17  1  0  0  0  0
  6 22  1  0  0  0  0
  7 22  2  0  0  0  0
  7 26  1  0  0  0  0
  8 10  1  0  0  0  0
  8 12  1  0  0  0  0
  8 39  1  0  0  0  0
  9 11  1  0  0  0  0
  9 19  1  0  0  0  0
  9 20  1  0  0  0  0
  9 21  1  0  0  0  0
 10 13  2  0  0  0  0
 10 14  1  0  0  0  0
 11 15  2  0  0  0  0
 11 16  1  0  0  0  0
 12 18  1  0  0  0  0
 12 23  2  0  0  0  0
 13 15  1  0  0  0  0
 13 40  1  0  0  0  0
 14 16  2  0  0  0  0
 14 41  1  0  0  0  0
 15 42  1  0  0  0  0
 16 43  1  0  0  0  0
 17 18  1  0  0  0  0
 19 45  1  0  0  0  0
 19 46  1  0  0  0  0
 19 47  1  0  0  0  0
 20 48  1  0  0  0  0
 20 49  1  0  0  0  0
 20 50  1  0  0  0  0
 21 44  1  0  0  0  0
 21 51  1  0  0  0  0
 21 52  1  0  0  0  0
 23 24  1  0  0  0  0
 24 27  2  0  0  0  0
 24 28  1  0  0  0  0
 25 26  2  0  0  0  0
 25 29  1  0  0  0  0
 26 30  1  0  0  0  0
 27 31  1  0  0  0  0
 27 53  1  0  0  0  0
 28 32  2  0  0  0  0
 28 54  1  0  0  0  0
 29 33  2  0  0  0  0
 29 56  1  0  0  0  0
 30 35  2  0  0  0  0
 30 57  1  0  0  0  0
 31 34  2  0  0  0  0
 31 58  1  0  0  0  0
 32 34  1  0  0  0  0
 32 59  1  0  0  0  0
 33 35  1  0  0  0  0
 34 36  1  0  0  0  0
 35 60  1  0  0  0  0
 36 61  1  0  0  0  0
 36 62  1  0  0  0  0
 36 63  1  0  0  0  0
 37 38  1  0  0  0  0
 37 64  1  0  0  0  0
 37 65  1  0  0  0  0
 38 66  1  0  0  0  0
 38 67  1  0  0  0  0
 38 68  1  0  0  0  0
M  END
> <PUBCHEM_COMPOUND_CID>
118729145

> <PUBCHEM_COMPOUND_CANONICALIZED>
1

> <PUBCHEM_CACTVS_COMPLEXITY>
913

> <PUBCHEM_CACTVS_HBOND_ACCEPTOR>
6

> <PUBCHEM_CACTVS_HBOND_DONOR>
1

> <PUBCHEM_CACTVS_ROTATABLE_BOND>
6

> <PUBCHEM_CACTVS_SUBSKEYS>
AAADceB7OABAAAAAAAAAAAAAAAAAAWLAAAAwYMAAAAAAAFgB9AAAHgQACAAADizh3gYz17MIFgisA6VydACD+KlhKjhJmD2+bNiMJrrkubuGeCjsxxPI+Se8yPCPwEAABAAAAQCAgAAIAAACAAAAAAAAAA==

> <PUBCHEM_IUPAC_OPENEYE_NAME>
(4Z)-5-(4-tert-butylphenyl)-1-(6-ethoxy-1,3-benzothiazol-2-yl)-4-[hydroxy(p-tolyl)methylene]pyrrolidine-2,3-dione

> <PUBCHEM_IUPAC_CAS_NAME>
(4Z)-5-(4-tert-butylphenyl)-1-(6-ethoxy-1,3-benzothiazol-2-yl)-4-[hydroxy-(4-methylphenyl)methylidene]pyrrolidine-2,3-dione

> <PUBCHEM_IUPAC_NAME>
(4Z)-5-(4-tert-butylphenyl)-1-(6-ethoxy-1,3-benzothiazol-2-yl)-4-[hydroxy-(4-methylphenyl)methylidene]pyrrolidine-2,3-dione

> <PUBCHEM_IUPAC_SYSTEMATIC_NAME>
(4Z)-5-(4-tert-butylphenyl)-1-(6-ethoxy-1,3-benzothiazol-2-yl)-4-[(4-methylphenyl)-oxidanyl-methylidene]pyrrolidine-2,3-dione

> <PUBCHEM_IUPAC_TRADITIONAL_NAME>
(4Z)-5-(4-tert-butylphenyl)-1-(6-ethoxy-1,3-benzothiazol-2-yl)-4-[hydroxy(p-tolyl)methylene]pyrrolidine-2,3-quinone

> <PUBCHEM_IUPAC_INCHI>
InChI=1S/C31H30N2O4S/c1-6-37-22-15-16-23-24(17-22)38-30(32-23)33-26(19-11-13-21(14-12-19)31(3,4)5)25(28(35)29(33)36)27(34)20-9-7-18(2)8-10-20/h7-17,26,34H,6H2,1-5H3/b27-25-

> <PUBCHEM_IUPAC_INCHIKEY>
GDVDRSQIIFUXEG-RFBIWTDZSA-N

> <PUBCHEM_XLOGP3_AA>
7.7

> <PUBCHEM_EXACT_MASS>
526.193

> <PUBCHEM_MOLECULAR_FORMULA>
C31H30N2O4S

> <PUBCHEM_MOLECULAR_WEIGHT>
526.651

> <PUBCHEM_OPENEYE_CAN_SMILES>
CCOC1=CC2=C(C=C1)N=C(S2)N3C(C(=C(C4=CC=C(C=C4)C)O)C(=O)C3=O)C5=CC=C(C=C5)C(C)(C)C

> <PUBCHEM_OPENEYE_ISO_SMILES>
CCOC1=CC2=C(C=C1)N=C(S2)N3C(/C(=C(\C4=CC=C(C=C4)C)/O)/C(=O)C3=O)C5=CC=C(C=C5)C(C)(C)C

> <PUBCHEM_CACTVS_TPSA>
108

> <PUBCHEM_MONOISOTOPIC_WEIGHT>
526.193

> <PUBCHEM_TOTAL_CHARGE>
0

> <PUBCHEM_HEAVY_ATOM_COUNT>
38

> <PUBCHEM_ATOM_DEF_STEREO_COUNT>
0

> <PUBCHEM_ATOM_UDEF_STEREO_COUNT>
1

> <PUBCHEM_BOND_DEF_STEREO_COUNT>
1

> <PUBCHEM_BOND_UDEF_STEREO_COUNT>
0

> <PUBCHEM_ISOTOPIC_ATOM_COUNT>
0

> <PUBCHEM_COMPONENT_COUNT>
1

> <PUBCHEM_CACTVS_TAUTO_COUNT>
11

> <PUBCHEM_COORDINATE_TYPE>
1
5
255

> <PUBCHEM_BONDANNOTATIONS>
1  22  8
1  25  8
10  13  8
10  14  8
11  15  8
11  16  8
13  15  8
14  16  8
24  27  8
24  28  8
25  26  8
25  29  8
26  30  8
27  31  8
28  32  8
29  33  8
30  35  8
31  34  8
32  34  8
33  35  8
7  22  8
7  26  8
8  10  3

$$$$
3530671
  -OEChem-11021604552D

 58 62  0     1  0  0  0  0  0999 V2000
    5.5443    2.7069    0.0000 S   0  0  0  0  0  0  0  0  0  0  0  0
    2.0000    2.9021    0.0000 F   0  0  0  0  0  0  0  0  0  0  0  0
    9.4758    2.9899    0.0000 O   0  0  0  0  0  0  0  0  0  0  0  0
    7.4067    3.6622    0.0000 O   0  0  0  0  0  0  0  0  0  0  0  0
   10.5972    2.1992    0.0000 O   0  0  0  0  0  0  0  0  0  0  0  0
    9.3712   -0.1802    0.0000 O   0  0  0  0  0  0  0  0  0  0  0  0
    7.1279    1.9021    0.0000 N   0  0  0  0  0  0  0  0  0  0  0  0
    5.5443    1.0974    0.0000 N   0  0  0  0  0  0  0  0  0  0  0  0
    7.7157    1.0931    0.0000 C   0  0  3  0  0  0  0  0  0  0  0  0
    6.4796   -2.7111    0.0000 C   0  0  0  0  0  0  0  0  0  0  0  0
    7.4067    0.1420    0.0000 C   0  0  0  0  0  0  0  0  0  0  0  0
    8.6668    1.4021    0.0000 C   0  0  0  0  0  0  0  0  0  0  0  0
    6.7886   -1.7601    0.0000 C   0  0  0  0  0  0  0  0  0  0  0  0
    6.4285   -0.0659    0.0000 C   0  0  0  0  0  0  0  0  0  0  0  0
    8.0758   -0.6011    0.0000 C   0  0  0  0  0  0  0  0  0  0  0  0
    8.6668    2.4021    0.0000 C   0  0  0  0  0  0  0  0  0  0  0  0
    7.7157    2.7111    0.0000 C   0  0  0  0  0  0  0  0  0  0  0  0
    6.1195   -1.0169    0.0000 C   0  0  0  0  0  0  0  0  0  0  0  0
    7.7668   -1.5522    0.0000 C   0  0  0  0  0  0  0  0  0  0  0  0
    6.1706   -3.6622    0.0000 C   0  0  0  0  0  0  0  0  0  0  0  0
    7.4307   -3.0202    0.0000 C   0  0  0  0  0  0  0  0  0  0  0  0
    5.5286   -2.4021    0.0000 C   0  0  0  0  0  0  0  0  0  0  0  0
    6.1279    1.9021    0.0000 C   0  0  0  0  0  0  0  0  0  0  0  0
    9.4758    0.8143    0.0000 C   0  0  0  0  0  0  0  0  0  0  0  0
   10.3893    1.2211    0.0000 C   0  0  0  0  0  0  0  0  0  0  0  0
    4.5981    2.4021    0.0000 C   0  0  0  0  0  0  0  0  0  0  0  0
    4.5981    1.4021    0.0000 C   0  0  0  0  0  0  0  0  0  0  0  0
   11.2553    0.7211    0.0000 C   0  0  0  0  0  0  0  0  0  0  0  0
    3.7320    2.9021    0.0000 C   0  0  0  0  0  0  0  0  0  0  0  0
    3.7320    0.9021    0.0000 C   0  0  0  0  0  0  0  0  0  0  0  0
   11.5917    2.3037    0.0000 C   0  0  0  0  0  0  0  0  0  0  0  0
   11.9985    1.3902    0.0000 C   0  0  0  0  0  0  0  0  0  0  0  0
    2.8660    2.4021    0.0000 C   0  0  0  0  0  0  0  0  0  0  0  0
    2.8660    1.4021    0.0000 C   0  0  0  0  0  0  0  0  0  0  0  0
   12.0917    3.1698    0.0000 C   0  0  0  0  0  0  0  0  0  0  0  0
    6.8762    0.9601    0.0000 H   0  0  0  0  0  0  0  0  0  0  0  0
    6.0137    0.3949    0.0000 H   0  0  0  0  0  0  0  0  0  0  0  0
    8.6822   -0.4722    0.0000 H   0  0  0  0  0  0  0  0  0  0  0  0
    5.5131   -1.1458    0.0000 H   0  0  0  0  0  0  0  0  0  0  0  0
    8.1816   -2.0129    0.0000 H   0  0  0  0  0  0  0  0  0  0  0  0
    5.7202   -1.8125    0.0000 H   0  0  0  0  0  0  0  0  0  0  0  0
    4.9389   -2.2105    0.0000 H   0  0  0  0  0  0  0  0  0  0  0  0
    5.3370   -2.9918    0.0000 H   0  0  0  0  0  0  0  0  0  0  0  0
    7.2391   -3.6098    0.0000 H   0  0  0  0  0  0  0  0  0  0  0  0
    8.0203   -3.2117    0.0000 H   0  0  0  0  0  0  0  0  0  0  0  0
    7.6223   -2.4305    0.0000 H   0  0  0  0  0  0  0  0  0  0  0  0
    5.5809   -3.4706    0.0000 H   0  0  0  0  0  0  0  0  0  0  0  0
    5.9790   -4.2518    0.0000 H   0  0  0  0  0  0  0  0  0  0  0  0
    6.7603   -3.8538    0.0000 H   0  0  0  0  0  0  0  0  0  0  0  0
    9.4110    3.6065    0.0000 H   0  0  0  0  0  0  0  0  0  0  0  0
   11.3201    0.1045    0.0000 H   0  0  0  0  0  0  0  0  0  0  0  0
    3.7320    3.5221    0.0000 H   0  0  0  0  0  0  0  0  0  0  0  0
    3.7320    0.2821    0.0000 H   0  0  0  0  0  0  0  0  0  0  0  0
   12.6049    1.2613    0.0000 H   0  0  0  0  0  0  0  0  0  0  0  0
    2.3291    1.0921    0.0000 H   0  0  0  0  0  0  0  0  0  0  0  0
   12.6287    2.8598    0.0000 H   0  0  0  0  0  0  0  0  0  0  0  0
   12.4017    3.7067    0.0000 H   0  0  0  0  0  0  0  0  0  0  0  0
   11.5548    3.4798    0.0000 H   0  0  0  0  0  0  0  0  0  0  0  0
  1 23  1  0  0  0  0
  1 26  1  0  0  0  0
  2 33  1  0  0  0  0
  3 16  1  0  0  0  0
  3 50  1  0  0  0  0
  4 17  2  0  0  0  0
  5 25  1  0  0  0  0
  5 31  1  0  0  0  0
  6 24  2  0  0  0  0
  7  9  1  0  0  0  0
  7 17  1  0  0  0  0
  7 23  1  0  0  0  0
  8 23  2  0  0  0  0
  8 27  1  0  0  0  0
  9 11  1  0  0  0  0
  9 12  1  0  0  0  0
  9 36  1  0  0  0  0
 10 13  1  0  0  0  0
 10 20  1  0  0  0  0
 10 21  1  0  0  0  0
 10 22  1  0  0  0  0
 11 14  2  0  0  0  0
 11 15  1  0  0  0  0
 12 16  2  0  0  0  0
 12 24  1  0  0  0  0
 13 18  2  0  0  0  0
 13 19  1  0  0  0  0
 14 18  1  0  0  0  0
 14 37  1  0  0  0  0
 15 19  2  0  0  0  0
 15 38  1  0  0  0  0
 16 17  1  0  0  0  0
 18 39  1  0  0  0  0
 19 40  1  0  0  0  0
 20 47  1  0  0  0  0
 20 48  1  0  0  0  0
 20 49  1  0  0  0  0
 21 44  1  0  0  0  0
 21 45  1  0  0  0  0
 21 46  1  0  0  0  0
 22 41  1  0  0  0  0
 22 42  1  0  0  0  0
 22 43  1  0  0  0  0
 24 25  1  0  0  0  0
 25 28  2  0  0  0  0
 26 27  2  0  0  0  0
 26 29  1  0  0  0  0
 27 30  1  0  0  0  0
 28 32  1  0  0  0  0
 28 51  1  0  0  0  0
 29 33  2  0  0  0  0
 29 52  1  0  0  0  0
 30 34  2  0  0  0  0
 30 53  1  0  0  0  0
 31 32  2  0  0  0  0
 31 35  1  0  0  0  0
 32 54  1  0  0  0  0
 33 34  1  0  0  0  0
 34 55  1  0  0  0  0
 35 56  1  0  0  0  0
 35 57  1  0  0  0  0
 35 58  1  0  0  0  0
M  END
> <PUBCHEM_COMPOUND_CID>
3530671

> <PUBCHEM_COMPOUND_CANONICALIZED>
1

> <PUBCHEM_CACTVS_COMPLEXITY>
881

> <PUBCHEM_CACTVS_HBOND_ACCEPTOR>
7

> <PUBCHEM_CACTVS_HBOND_DONOR>
1

> <PUBCHEM_CACTVS_ROTATABLE_BOND>
5

> <PUBCHEM_CACTVS_SUBSKEYS>
AAADceB7OQBAAAAAAAAAAAAAAAAAAWJEAAAwYAAAAAAAAFgB/AAAHwQACAAADizB3gwz1bMIFkisA6VydAKD+KllKjhJmD1+bNiOJrrkvZ+GOSjsxxPY6ae8zvDvwAAAAAAAAQCAAAAAAAACAAAAAAAAAA==

> <PUBCHEM_IUPAC_OPENEYE_NAME>
2-(4-tert-butylphenyl)-1-(6-fluoro-1,3-benzothiazol-2-yl)-4-hydroxy-3-(5-methylfuran-2-carbonyl)-2H-pyrrol-5-one

> <PUBCHEM_IUPAC_CAS_NAME>
2-(4-tert-butylphenyl)-1-(6-fluoro-1,3-benzothiazol-2-yl)-4-hydroxy-3-[(5-methyl-2-furanyl)-oxomethyl]-2H-pyrrol-5-one

> <PUBCHEM_IUPAC_NAME>
2-(4-tert-butylphenyl)-1-(6-fluoro-1,3-benzothiazol-2-yl)-4-hydroxy-3-(5-methylfuran-2-carbonyl)-2H-pyrrol-5-one

> <PUBCHEM_IUPAC_SYSTEMATIC_NAME>
2-(4-tert-butylphenyl)-1-(6-fluoranyl-1,3-benzothiazol-2-yl)-3-(5-methylfuran-2-yl)carbonyl-4-oxidanyl-2H-pyrrol-5-one

> <PUBCHEM_IUPAC_TRADITIONAL_NAME>
5-(4-tert-butylphenyl)-1-(6-fluoro-1,3-benzothiazol-2-yl)-3-hydroxy-4-(5-methyl-2-furoyl)-3-pyrrolin-2-one

> <PUBCHEM_IUPAC_INCHI>
InChI=1S/C27H23FN2O4S/c1-14-5-12-19(34-14)23(31)21-22(15-6-8-16(9-7-15)27(2,3)4)30(25(33)24(21)32)26-29-18-11-10-17(28)13-20(18)35-26/h5-13,22,32H,1-4H3

> <PUBCHEM_IUPAC_INCHIKEY>
WBMPHPLCRYIDMC-UHFFFAOYSA-N

> <PUBCHEM_XLOGP3_AA>
6.9

> <PUBCHEM_EXACT_MASS>
490.136

> <PUBCHEM_MOLECULAR_FORMULA>
C27H23FN2O4S

> <PUBCHEM_MOLECULAR_WEIGHT>
490.549

> <PUBCHEM_OPENEYE_CAN_SMILES>
CC1=CC=C(O1)C(=O)C2=C(C(=O)N(C2C3=CC=C(C=C3)C(C)(C)C)C4=NC5=C(S4)C=C(C=C5)F)O

> <PUBCHEM_OPENEYE_ISO_SMILES>
CC1=CC=C(O1)C(=O)C2=C(C(=O)N(C2C3=CC=C(C=C3)C(C)(C)C)C4=NC5=C(S4)C=C(C=C5)F)O

> <PUBCHEM_CACTVS_TPSA>
112

> <PUBCHEM_MONOISOTOPIC_WEIGHT>
490.136

> <PUBCHEM_TOTAL_CHARGE>
0

> <PUBCHEM_HEAVY_ATOM_COUNT>
35

> <PUBCHEM_ATOM_DEF_STEREO_COUNT>
0

> <PUBCHEM_ATOM_UDEF_STEREO_COUNT>
1

> <PUBCHEM_BOND_DEF_STEREO_COUNT>
0

> <PUBCHEM_BOND_UDEF_STEREO_COUNT>
0

> <PUBCHEM_ISOTOPIC_ATOM_COUNT>
0

> <PUBCHEM_COMPONENT_COUNT>
1

> <PUBCHEM_CACTVS_TAUTO_COUNT>
11

> <PUBCHEM_COORDINATE_TYPE>
1
5
255

> <PUBCHEM_BONDANNOTATIONS>
1  23  8
1  26  8
11  14  8
11  15  8
13  18  8
13  19  8
14  18  8
15  19  8
25  28  8
26  27  8
26  29  8
27  30  8
28  32  8
29  33  8
30  34  8
31  32  8
33  34  8
5  25  8
5  31  8
8  23  8
8  27  8
9  36  3

$$$$
6197516
  -OEChem-11021604552D

 72 77  0     1  0  0  0  0  0999 V2000
    2.0000    1.5548    0.0000 Cl  0  0  0  0  0  0  0  0  0  0  0  0
    5.5045    2.1195    0.0000 S   0  0  0  0  0  0  0  0  0  0  0  0
    9.4440    1.2490    0.0000 O   0  0  0  0  0  0  0  0  0  0  0  0
    9.2166    4.4126    0.0000 O   0  0  0  0  0  0  0  0  0  0  0  0
    7.0886    4.8649    0.0000 O   0  0  0  0  0  0  0  0  0  0  0  0
    6.8328   -1.5704    0.0000 O   0  0  0  0  0  0  0  0  0  0  0  0
    5.3465   -0.2321    0.0000 O   0  0  0  0  0  0  0  0  0  0  0  0
   12.9360    2.2143    0.0000 O   0  0  0  0  0  0  0  0  0  0  0  0
   12.9360    4.2836    0.0000 O   0  0  0  0  0  0  0  0  0  0  0  0
    6.9953    3.0854    0.0000 N   0  0  0  0  0  0  0  0  0  0  0  0
    5.3362    3.7202    0.0000 N   0  0  0  0  0  0  0  0  0  0  0  0
    7.6644    2.3422    0.0000 C   0  0  3  0  0  0  0  0  0  0  0  0
    8.5780    2.7489    0.0000 C   0  0  0  0  0  0  0  0  0  0  0  0
    7.4565    1.3641    0.0000 C   0  0  0  0  0  0  0  0  0  0  0  0
    8.4734    3.7435    0.0000 C   0  0  0  0  0  0  0  0  0  0  0  0
    7.4953    3.9514    0.0000 C   0  0  0  0  0  0  0  0  0  0  0  0
    9.4440    2.2489    0.0000 C   0  0  0  0  0  0  0  0  0  0  0  0
    6.0008    2.9808    0.0000 C   0  0  0  0  0  0  0  0  0  0  0  0
    6.5054    1.0550    0.0000 C   0  0  0  0  0  0  0  0  0  0  0  0
    8.1996    0.6949    0.0000 C   0  0  0  0  0  0  0  0  0  0  0  0
   10.3100    2.7489    0.0000 C   0  0  0  0  0  0  0  0  0  0  0  0
    6.2975    0.0769    0.0000 C   0  0  0  0  0  0  0  0  0  0  0  0
    7.9917   -0.2832    0.0000 C   0  0  0  0  0  0  0  0  0  0  0  0
    7.0407   -0.5922    0.0000 C   0  0  0  0  0  0  0  0  0  0  0  0
    4.5316    2.3237    0.0000 C   0  0  0  0  0  0  0  0  0  0  0  0
    4.4271    3.3182    0.0000 C   0  0  0  0  0  0  0  0  0  0  0  0
   11.1760    2.2489    0.0000 C   0  0  0  0  0  0  0  0  0  0  0  0
   10.3100    3.7490    0.0000 C   0  0  0  0  0  0  0  0  0  0  0  0
   12.0421    2.7489    0.0000 C   0  0  0  0  0  0  0  0  0  0  0  0
   12.0421    3.7490    0.0000 C   0  0  0  0  0  0  0  0  0  0  0  0
   11.1760    4.2490    0.0000 C   0  0  0  0  0  0  0  0  0  0  0  0
    7.5759   -2.2395    0.0000 C   0  0  0  0  0  0  0  0  0  0  0  0
    7.3680   -3.2176    0.0000 C   0  0  0  0  0  0  0  0  0  0  0  0
    3.7226    1.7359    0.0000 C   0  0  0  0  0  0  0  0  0  0  0  0
    3.5135    3.7249    0.0000 C   0  0  0  0  0  0  0  0  0  0  0  0
   13.8421    2.7281    0.0000 C   0  0  0  0  0  0  0  0  0  0  0  0
   13.8421    3.7698    0.0000 C   0  0  0  0  0  0  0  0  0  0  0  0
    5.1386   -1.2103    0.0000 C   0  0  0  0  0  0  0  0  0  0  0  0
    8.1112   -3.8868    0.0000 C   0  0  0  0  0  0  0  0  0  0  0  0
    2.8090    2.1426    0.0000 C   0  0  0  0  0  0  0  0  0  0  0  0
    2.7045    3.1371    0.0000 C   0  0  0  0  0  0  0  0  0  0  0  0
    4.1875   -1.5193    0.0000 C   0  0  0  0  0  0  0  0  0  0  0  0
    7.9032   -4.8649    0.0000 C   0  0  0  0  0  0  0  0  0  0  0  0
    7.0655    2.1818    0.0000 H   0  0  0  0  0  0  0  0  0  0  0  0
    6.0447    1.4699    0.0000 H   0  0  0  0  0  0  0  0  0  0  0  0
    8.7893    0.8865    0.0000 H   0  0  0  0  0  0  0  0  0  0  0  0
    8.4525   -0.6981    0.0000 H   0  0  0  0  0  0  0  0  0  0  0  0
   11.1760    1.6289    0.0000 H   0  0  0  0  0  0  0  0  0  0  0  0
    9.7731    4.0590    0.0000 H   0  0  0  0  0  0  0  0  0  0  0  0
    9.9809    0.9390    0.0000 H   0  0  0  0  0  0  0  0  0  0  0  0
   11.1760    4.8690    0.0000 H   0  0  0  0  0  0  0  0  0  0  0  0
    8.1508   -2.4718    0.0000 H   0  0  0  0  0  0  0  0  0  0  0  0
    7.9045   -1.7137    0.0000 H   0  0  0  0  0  0  0  0  0  0  0  0
    6.7932   -2.9854    0.0000 H   0  0  0  0  0  0  0  0  0  0  0  0
    7.0394   -3.7434    0.0000 H   0  0  0  0  0  0  0  0  0  0  0  0
    3.7874    1.1193    0.0000 H   0  0  0  0  0  0  0  0  0  0  0  0
    3.4487    4.3415    0.0000 H   0  0  0  0  0  0  0  0  0  0  0  0
   14.0511    2.1444    0.0000 H   0  0  0  0  0  0  0  0  0  0  0  0
   14.4529    2.8342    0.0000 H   0  0  0  0  0  0  0  0  0  0  0  0
   14.4529    3.6637    0.0000 H   0  0  0  0  0  0  0  0  0  0  0  0
   14.0511    4.3535    0.0000 H   0  0  0  0  0  0  0  0  0  0  0  0
    5.2249   -1.8242    0.0000 H   0  0  0  0  0  0  0  0  0  0  0  0
    5.7582   -1.2319    0.0000 H   0  0  0  0  0  0  0  0  0  0  0  0
    8.6860   -4.1190    0.0000 H   0  0  0  0  0  0  0  0  0  0  0  0
    8.4397   -3.3610    0.0000 H   0  0  0  0  0  0  0  0  0  0  0  0
    2.1381    3.3893    0.0000 H   0  0  0  0  0  0  0  0  0  0  0  0
    7.2968   -4.7360    0.0000 H   0  0  0  0  0  0  0  0  0  0  0  0
    7.7743   -5.4714    0.0000 H   0  0  0  0  0  0  0  0  0  0  0  0
    8.5097   -4.9938    0.0000 H   0  0  0  0  0  0  0  0  0  0  0  0
    3.9959   -0.9296    0.0000 H   0  0  0  0  0  0  0  0  0  0  0  0
    3.5979   -1.7109    0.0000 H   0  0  0  0  0  0  0  0  0  0  0  0
    4.3791   -2.1089    0.0000 H   0  0  0  0  0  0  0  0  0  0  0  0
  1 40  1  0  0  0  0
  2 18  1  0  0  0  0
  2 25  1  0  0  0  0
  3 17  1  0  0  0  0
  3 50  1  0  0  0  0
  4 15  2  0  0  0  0
  5 16  2  0  0  0  0
  6 24  1  0  0  0  0
  6 32  1  0  0  0  0
  7 22  1  0  0  0  0
  7 38  1  0  0  0  0
  8 29  1  0  0  0  0
  8 36  1  0  0  0  0
  9 30  1  0  0  0  0
  9 37  1  0  0  0  0
 10 12  1  0  0  0  0
 10 16  1  0  0  0  0
 10 18  1  0  0  0  0
 11 18  2  0  0  0  0
 11 26  1  0  0  0  0
 12 13  1  0  0  0  0
 12 14  1  0  0  0  0
 12 44  1  0  0  0  0
 13 15  1  0  0  0  0
 13 17  2  0  0  0  0
 14 19  2  0  0  0  0
 14 20  1  0  0  0  0
 15 16  1  0  0  0  0
 17 21  1  0  0  0  0
 19 22  1  0  0  0  0
 19 45  1  0  0  0  0
 20 23  2  0  0  0  0
 20 46  1  0  0  0  0
 21 27  2  0  0  0  0
 21 28  1  0  0  0  0
 22 24  2  0  0  0  0
 23 24  1  0  0  0  0
 23 47  1  0  0  0  0
 25 26  2  0  0  0  0
 25 34  1  0  0  0  0
 26 35  1  0  0  0  0
 27 29  1  0  0  0  0
 27 48  1  0  0  0  0
 28 31  2  0  0  0  0
 28 49  1  0  0  0  0
 29 30  2  0  0  0  0
 30 31  1  0  0  0  0
 31 51  1  0  0  0  0
 32 33  1  0  0  0  0
 32 52  1  0  0  0  0
 32 53  1  0  0  0  0
 33 39  1  0  0  0  0
 33 54  1  0  0  0  0
 33 55  1  0  0  0  0
 34 40  2  0  0  0  0
 34 56  1  0  0  0  0
 35 41  2  0  0  0  0
 35 57  1  0  0  0  0
 36 37  1  0  0  0  0
 36 58  1  0  0  0  0
 36 59  1  0  0  0  0
 37 60  1  0  0  0  0
 37 61  1  0  0  0  0
 38 42  1  0  0  0  0
 38 62  1  0  0  0  0
 38 63  1  0  0  0  0
 39 43  1  0  0  0  0
 39 64  1  0  0  0  0
 39 65  1  0  0  0  0
 40 41  1  0  0  0  0
 41 66  1  0  0  0  0
 42 70  1  0  0  0  0
 42 71  1  0  0  0  0
 42 72  1  0  0  0  0
 43 67  1  0  0  0  0
 43 68  1  0  0  0  0
 43 69  1  0  0  0  0
M  END
> <PUBCHEM_COMPOUND_CID>
6197516

> <PUBCHEM_COMPOUND_CANONICALIZED>
1

> <PUBCHEM_CACTVS_COMPLEXITY>
1050

> <PUBCHEM_CACTVS_HBOND_ACCEPTOR>
9

> <PUBCHEM_CACTVS_HBOND_DONOR>
1

> <PUBCHEM_CACTVS_ROTATABLE_BOND>
9

> <PUBCHEM_CACTVS_SUBSKEYS>
AAADceB/OABEAAAAAAAAAAAAAAAAAWLAAAA0YMEAAAAAAFiR9AAAHgYACAAADC7h3iYz17MIFgisA6VydACD+KlhLzhJmD2+7tiNJrrlu7uGeCrsxxPK+Sf8+L+OIABBABAAQQBAAIIAIACCAAAAAAAAAA==

> <PUBCHEM_IUPAC_OPENEYE_NAME>
(4E)-5-(4-butoxy-3-ethoxy-phenyl)-1-(6-chloro-1,3-benzothiazol-2-yl)-4-[2,3-dihydro-1,4-benzodioxin-6-yl(hydroxy)methylene]pyrrolidine-2,3-dione

> <PUBCHEM_IUPAC_CAS_NAME>
(4E)-5-(4-butoxy-3-ethoxyphenyl)-1-(6-chloro-1,3-benzothiazol-2-yl)-4-[2,3-dihydro-1,4-benzodioxin-6-yl(hydroxy)methylidene]pyrrolidine-2,3-dione

> <PUBCHEM_IUPAC_NAME>
(4E)-5-(4-butoxy-3-ethoxyphenyl)-1-(6-chloro-1,3-benzothiazol-2-yl)-4-[2,3-dihydro-1,4-benzodioxin-6-yl(hydroxy)methylidene]pyrrolidine-2,3-dione

> <PUBCHEM_IUPAC_SYSTEMATIC_NAME>
(4E)-5-(4-butoxy-3-ethoxy-phenyl)-1-(6-chloranyl-1,3-benzothiazol-2-yl)-4-[2,3-dihydro-1,4-benzodioxin-6-yl(oxidanyl)methylidene]pyrrolidine-2,3-dione

> <PUBCHEM_IUPAC_TRADITIONAL_NAME>
(4E)-5-(4-butoxy-3-ethoxy-phenyl)-1-(6-chloro-1,3-benzothiazol-2-yl)-4-[2,3-dihydro-1,4-benzodioxin-6-yl(hydroxy)methylene]pyrrolidine-2,3-quinone

> <PUBCHEM_IUPAC_INCHI>
InChI=1S/C32H29ClN2O7S/c1-3-5-12-40-22-10-6-18(15-24(22)39-4-2)28-27(29(36)19-7-11-23-25(16-19)42-14-13-41-23)30(37)31(38)35(28)32-34-21-9-8-20(33)17-26(21)43-32/h6-11,15-17,28,36H,3-5,12-14H2,1-2H3/b29-27+

> <PUBCHEM_IUPAC_INCHIKEY>
YBRNDYDITFUYGS-ORIPQNMZSA-N

> <PUBCHEM_XLOGP3_AA>
7.2

> <PUBCHEM_EXACT_MASS>
620.138

> <PUBCHEM_MOLECULAR_FORMULA>
C32H29ClN2O7S

> <PUBCHEM_MOLECULAR_WEIGHT>
621.101

> <PUBCHEM_OPENEYE_CAN_SMILES>
CCCCOC1=C(C=C(C=C1)C2C(=C(C3=CC4=C(C=C3)OCCO4)O)C(=O)C(=O)N2C5=NC6=C(S5)C=C(C=C6)Cl)OCC

> <PUBCHEM_OPENEYE_ISO_SMILES>
CCCCOC1=C(C=C(C=C1)C2/C(=C(/C3=CC4=C(C=C3)OCCO4)\O)/C(=O)C(=O)N2C5=NC6=C(S5)C=C(C=C6)Cl)OCC

> <PUBCHEM_CACTVS_TPSA>
136

> <PUBCHEM_MONOISOTOPIC_WEIGHT>
620.138

> <PUBCHEM_TOTAL_CHARGE>
0

> <PUBCHEM_HEAVY_ATOM_COUNT>
43

> <PUBCHEM_ATOM_DEF_STEREO_COUNT>
0

> <PUBCHEM_ATOM_UDEF_STEREO_COUNT>
1

> <PUBCHEM_BOND_DEF_STEREO_COUNT>
1

> <PUBCHEM_BOND_UDEF_STEREO_COUNT>
0

> <PUBCHEM_ISOTOPIC_ATOM_COUNT>
0

> <PUBCHEM_COMPONENT_COUNT>
1

> <PUBCHEM_CACTVS_TAUTO_COUNT>
3

> <PUBCHEM_COORDINATE_TYPE>
1
5
255

> <PUBCHEM_BONDANNOTATIONS>
11  18  8
11  26  8
12  14  3
14  19  8
14  20  8
19  22  8
2  18  8
2  25  8
20  23  8
21  27  8
21  28  8
22  24  8
23  24  8
25  26  8
25  34  8
26  35  8
27  29  8
28  31  8
29  30  8
30  31  8
34  40  8
35  41  8
40  41  8

$$$$
2942922
  -OEChem-11021604552D

 43 47  0     1  0  0  0  0  0999 V2000
    5.5443    1.7558    0.0000 S   0  0  0  0  0  0  0  0  0  0  0  0
    5.1414   -2.1759    0.0000 F   0  0  0  0  0  0  0  0  0  0  0  0
    2.0000    1.9511    0.0000 F   0  0  0  0  0  0  0  0  0  0  0  0
    9.4758    2.0388    0.0000 O   0  0  0  0  0  0  0  0  0  0  0  0
    7.4067    2.7111    0.0000 O   0  0  0  0  0  0  0  0  0  0  0  0
    9.3712   -1.1312    0.0000 O   0  0  0  0  0  0  0  0  0  0  0  0
   10.5972    1.2482    0.0000 O   0  0  0  0  0  0  0  0  0  0  0  0
    7.1279    0.9511    0.0000 N   0  0  0  0  0  0  0  0  0  0  0  0
    5.5443    0.1463    0.0000 N   0  0  0  0  0  0  0  0  0  0  0  0
    7.7157    0.1420    0.0000 C   0  0  3  0  0  0  0  0  0  0  0  0
    8.6668    0.4511    0.0000 C   0  0  0  0  0  0  0  0  0  0  0  0
    7.4067   -0.8090    0.0000 C   0  0  0  0  0  0  0  0  0  0  0  0
    8.6668    1.4511    0.0000 C   0  0  0  0  0  0  0  0  0  0  0  0
    7.7157    1.7601    0.0000 C   0  0  0  0  0  0  0  0  0  0  0  0
    6.1279    0.9511    0.0000 C   0  0  0  0  0  0  0  0  0  0  0  0
    9.4758   -0.1367    0.0000 C   0  0  0  0  0  0  0  0  0  0  0  0
    6.4285   -1.0169    0.0000 C   0  0  0  0  0  0  0  0  0  0  0  0
    8.0758   -1.5522    0.0000 C   0  0  0  0  0  0  0  0  0  0  0  0
    4.5981    1.4511    0.0000 C   0  0  0  0  0  0  0  0  0  0  0  0
    4.5981    0.4511    0.0000 C   0  0  0  0  0  0  0  0  0  0  0  0
   10.3893    0.2700    0.0000 C   0  0  0  0  0  0  0  0  0  0  0  0
    6.1195   -1.9680    0.0000 C   0  0  0  0  0  0  0  0  0  0  0  0
    7.7668   -2.5032    0.0000 C   0  0  0  0  0  0  0  0  0  0  0  0
    6.7886   -2.7111    0.0000 C   0  0  0  0  0  0  0  0  0  0  0  0
    3.7320    1.9511    0.0000 C   0  0  0  0  0  0  0  0  0  0  0  0
    3.7320   -0.0489    0.0000 C   0  0  0  0  0  0  0  0  0  0  0  0
   11.2553   -0.2300    0.0000 C   0  0  0  0  0  0  0  0  0  0  0  0
    2.8660    1.4511    0.0000 C   0  0  0  0  0  0  0  0  0  0  0  0
    2.8660    0.4511    0.0000 C   0  0  0  0  0  0  0  0  0  0  0  0
   11.9985    0.4391    0.0000 C   0  0  0  0  0  0  0  0  0  0  0  0
   11.5917    1.3527    0.0000 C   0  0  0  0  0  0  0  0  0  0  0  0
    7.1033    0.0451    0.0000 H   0  0  0  0  0  0  0  0  0  0  0  0
    6.0137   -0.5562    0.0000 H   0  0  0  0  0  0  0  0  0  0  0  0
    8.6822   -1.4233    0.0000 H   0  0  0  0  0  0  0  0  0  0  0  0
    8.1816   -2.9640    0.0000 H   0  0  0  0  0  0  0  0  0  0  0  0
    9.4110    2.6554    0.0000 H   0  0  0  0  0  0  0  0  0  0  0  0
    6.5970   -3.3008    0.0000 H   0  0  0  0  0  0  0  0  0  0  0  0
    3.7320    2.5711    0.0000 H   0  0  0  0  0  0  0  0  0  0  0  0
    3.7320   -0.6689    0.0000 H   0  0  0  0  0  0  0  0  0  0  0  0
   11.3201   -0.8466    0.0000 H   0  0  0  0  0  0  0  0  0  0  0  0
    2.3291    0.1411    0.0000 H   0  0  0  0  0  0  0  0  0  0  0  0
   12.6049    0.3102    0.0000 H   0  0  0  0  0  0  0  0  0  0  0  0
   11.9017    1.8896    0.0000 H   0  0  0  0  0  0  0  0  0  0  0  0
  1 15  1  0  0  0  0
  1 19  1  0  0  0  0
  2 22  1  0  0  0  0
  3 28  1  0  0  0  0
  4 13  1  0  0  0  0
  4 36  1  0  0  0  0
  5 14  2  0  0  0  0
  6 16  2  0  0  0  0
  7 21  1  0  0  0  0
  7 31  1  0  0  0  0
  8 10  1  0  0  0  0
  8 14  1  0  0  0  0
  8 15  1  0  0  0  0
  9 15  2  0  0  0  0
  9 20  1  0  0  0  0
 10 11  1  0  0  0  0
 10 12  1  0  0  0  0
 10 32  1  0  0  0  0
 11 13  2  0  0  0  0
 11 16  1  0  0  0  0
 12 17  2  0  0  0  0
 12 18  1  0  0  0  0
 13 14  1  0  0  0  0
 16 21  1  0  0  0  0
 17 22  1  0  0  0  0
 17 33  1  0  0  0  0
 18 23  2  0  0  0  0
 18 34  1  0  0  0  0
 19 20  2  0  0  0  0
 19 25  1  0  0  0  0
 20 26  1  0  0  0  0
 21 27  2  0  0  0  0
 22 24  2  0  0  0  0
 23 24  1  0  0  0  0
 23 35  1  0  0  0  0
 24 37  1  0  0  0  0
 25 28  2  0  0  0  0
 25 38  1  0  0  0  0
 26 29  2  0  0  0  0
 26 39  1  0  0  0  0
 27 30  1  0  0  0  0
 27 40  1  0  0  0  0
 28 29  1  0  0  0  0
 29 41  1  0  0  0  0
 30 31  2  0  0  0  0
 30 42  1  0  0  0  0
 31 43  1  0  0  0  0
M  END
> <PUBCHEM_COMPOUND_CID>
2942922

> <PUBCHEM_COMPOUND_CANONICALIZED>
1

> <PUBCHEM_CACTVS_COMPLEXITY>
781

> <PUBCHEM_CACTVS_HBOND_ACCEPTOR>
8

> <PUBCHEM_CACTVS_HBOND_DONOR>
1

> <PUBCHEM_CACTVS_ROTATABLE_BOND>
4

> <PUBCHEM_CACTVS_SUBSKEYS>
AAADccB7OYBAAAAAAAAAAAAAAAAAAWJEAAAwYAAAAAAAAFgB/AAAHwQACAAADCzh3g4x1bMIFkisA61y9AKD+KllKjhJmD1+bNiOJrrkvZ+GOSjsxxPY6ae8zvCuAAAAAAAAAQAAAAAAAAACAAAAAAAAAA==

> <PUBCHEM_IUPAC_OPENEYE_NAME>
1-(6-fluoro-1,3-benzothiazol-2-yl)-2-(3-fluorophenyl)-3-(furan-2-carbonyl)-4-hydroxy-2H-pyrrol-5-one

> <PUBCHEM_IUPAC_CAS_NAME>
1-(6-fluoro-1,3-benzothiazol-2-yl)-2-(3-fluorophenyl)-3-[2-furanyl(oxo)methyl]-4-hydroxy-2H-pyrrol-5-one

> <PUBCHEM_IUPAC_NAME>
1-(6-fluoro-1,3-benzothiazol-2-yl)-2-(3-fluorophenyl)-3-(furan-2-carbonyl)-4-hydroxy-2H-pyrrol-5-one

> <PUBCHEM_IUPAC_SYSTEMATIC_NAME>
1-(6-fluoranyl-1,3-benzothiazol-2-yl)-2-(3-fluorophenyl)-3-(furan-2-ylcarbonyl)-4-oxidanyl-2H-pyrrol-5-one

> <PUBCHEM_IUPAC_TRADITIONAL_NAME>
1-(6-fluoro-1,3-benzothiazol-2-yl)-5-(3-fluorophenyl)-4-(2-furoyl)-3-hydroxy-3-pyrrolin-2-one

> <PUBCHEM_IUPAC_INCHI>
InChI=1S/C22H12F2N2O4S/c23-12-4-1-3-11(9-12)18-17(19(27)15-5-2-8-30-15)20(28)21(29)26(18)22-25-14-7-6-13(24)10-16(14)31-22/h1-10,18,28H

> <PUBCHEM_IUPAC_INCHIKEY>
MKLJLPCLXLXJEF-UHFFFAOYSA-N

> <PUBCHEM_XLOGP3_AA>
4.9

> <PUBCHEM_EXACT_MASS>
438.049

> <PUBCHEM_MOLECULAR_FORMULA>
C22H12F2N2O4S

> <PUBCHEM_MOLECULAR_WEIGHT>
438.405

> <PUBCHEM_OPENEYE_CAN_SMILES>
C1=CC(=CC(=C1)F)C2C(=C(C(=O)N2C3=NC4=C(S3)C=C(C=C4)F)O)C(=O)C5=CC=CO5

> <PUBCHEM_OPENEYE_ISO_SMILES>
C1=CC(=CC(=C1)F)C2C(=C(C(=O)N2C3=NC4=C(S3)C=C(C=C4)F)O)C(=O)C5=CC=CO5

> <PUBCHEM_CACTVS_TPSA>
112

> <PUBCHEM_MONOISOTOPIC_WEIGHT>
438.049

> <PUBCHEM_TOTAL_CHARGE>
0

> <PUBCHEM_HEAVY_ATOM_COUNT>
31

> <PUBCHEM_ATOM_DEF_STEREO_COUNT>
0

> <PUBCHEM_ATOM_UDEF_STEREO_COUNT>
1

> <PUBCHEM_BOND_DEF_STEREO_COUNT>
0

> <PUBCHEM_BOND_UDEF_STEREO_COUNT>
0

> <PUBCHEM_ISOTOPIC_ATOM_COUNT>
0

> <PUBCHEM_COMPONENT_COUNT>
1

> <PUBCHEM_CACTVS_TAUTO_COUNT>
3

> <PUBCHEM_COORDINATE_TYPE>
1
5
255

> <PUBCHEM_BONDANNOTATIONS>
1  15  8
1  19  8
10  12  3
12  17  8
12  18  8
17  22  8
18  23  8
19  20  8
19  25  8
20  26  8
21  27  8
22  24  8
23  24  8
25  28  8
26  29  8
27  30  8
28  29  8
30  31  8
7  21  8
7  31  8
9  15  8
9  20  8

$$$$
3510382
  -OEChem-11021604552D

 43 47  0     1  0  0  0  0  0999 V2000
    6.4796   -3.1867    0.0000 Br  0  0  0  0  0  0  0  0  0  0  0  0
    5.5443    2.2313    0.0000 S   0  0  0  0  0  0  0  0  0  0  0  0
    2.0000    2.4266    0.0000 F   0  0  0  0  0  0  0  0  0  0  0  0
    9.4758    2.5144    0.0000 O   0  0  0  0  0  0  0  0  0  0  0  0
    7.4067    3.1867    0.0000 O   0  0  0  0  0  0  0  0  0  0  0  0
    9.3712   -0.6557    0.0000 O   0  0  0  0  0  0  0  0  0  0  0  0
   10.5972    1.7237    0.0000 O   0  0  0  0  0  0  0  0  0  0  0  0
    7.1279    1.4266    0.0000 N   0  0  0  0  0  0  0  0  0  0  0  0
    5.5443    0.6219    0.0000 N   0  0  0  0  0  0  0  0  0  0  0  0
    7.7157    0.6176    0.0000 C   0  0  3  0  0  0  0  0  0  0  0  0
    8.6668    0.9266    0.0000 C   0  0  0  0  0  0  0  0  0  0  0  0
    7.4067   -0.3335    0.0000 C   0  0  0  0  0  0  0  0  0  0  0  0
    8.6668    1.9266    0.0000 C   0  0  0  0  0  0  0  0  0  0  0  0
    7.7157    2.2356    0.0000 C   0  0  0  0  0  0  0  0  0  0  0  0
    6.1279    1.4266    0.0000 C   0  0  0  0  0  0  0  0  0  0  0  0
    9.4758    0.3388    0.0000 C   0  0  0  0  0  0  0  0  0  0  0  0
    6.4285   -0.5414    0.0000 C   0  0  0  0  0  0  0  0  0  0  0  0
    8.0758   -1.0766    0.0000 C   0  0  0  0  0  0  0  0  0  0  0  0
    4.5981    1.9266    0.0000 C   0  0  0  0  0  0  0  0  0  0  0  0
    4.5981    0.9266    0.0000 C   0  0  0  0  0  0  0  0  0  0  0  0
   10.3893    0.7455    0.0000 C   0  0  0  0  0  0  0  0  0  0  0  0
    6.1195   -1.4925    0.0000 C   0  0  0  0  0  0  0  0  0  0  0  0
    7.7668   -2.0277    0.0000 C   0  0  0  0  0  0  0  0  0  0  0  0
    6.7886   -2.2356    0.0000 C   0  0  0  0  0  0  0  0  0  0  0  0
    3.7320    2.4266    0.0000 C   0  0  0  0  0  0  0  0  0  0  0  0
    3.7320    0.4266    0.0000 C   0  0  0  0  0  0  0  0  0  0  0  0
   11.2553    0.2455    0.0000 C   0  0  0  0  0  0  0  0  0  0  0  0
    2.8660    1.9266    0.0000 C   0  0  0  0  0  0  0  0  0  0  0  0
    2.8660    0.9266    0.0000 C   0  0  0  0  0  0  0  0  0  0  0  0
   11.9985    0.9147    0.0000 C   0  0  0  0  0  0  0  0  0  0  0  0
   11.5917    1.8282    0.0000 C   0  0  0  0  0  0  0  0  0  0  0  0
    6.8762    0.4846    0.0000 H   0  0  0  0  0  0  0  0  0  0  0  0
    6.0137   -0.0807    0.0000 H   0  0  0  0  0  0  0  0  0  0  0  0
    8.6822   -0.9477    0.0000 H   0  0  0  0  0  0  0  0  0  0  0  0
    5.5131   -1.6214    0.0000 H   0  0  0  0  0  0  0  0  0  0  0  0
    8.1816   -2.4884    0.0000 H   0  0  0  0  0  0  0  0  0  0  0  0
    9.4110    3.1310    0.0000 H   0  0  0  0  0  0  0  0  0  0  0  0
    3.7320    3.0466    0.0000 H   0  0  0  0  0  0  0  0  0  0  0  0
    3.7320   -0.1934    0.0000 H   0  0  0  0  0  0  0  0  0  0  0  0
   11.3201   -0.3711    0.0000 H   0  0  0  0  0  0  0  0  0  0  0  0
    2.3291    0.6166    0.0000 H   0  0  0  0  0  0  0  0  0  0  0  0
   12.6049    0.7858    0.0000 H   0  0  0  0  0  0  0  0  0  0  0  0
   11.9017    2.3652    0.0000 H   0  0  0  0  0  0  0  0  0  0  0  0
  1 24  1  0  0  0  0
  2 15  1  0  0  0  0
  2 19  1  0  0  0  0
  3 28  1  0  0  0  0
  4 13  1  0  0  0  0
  4 37  1  0  0  0  0
  5 14  2  0  0  0  0
  6 16  2  0  0  0  0
  7 21  1  0  0  0  0
  7 31  1  0  0  0  0
  8 10  1  0  0  0  0
  8 14  1  0  0  0  0
  8 15  1  0  0  0  0
  9 15  2  0  0  0  0
  9 20  1  0  0  0  0
 10 11  1  0  0  0  0
 10 12  1  0  0  0  0
 10 32  1  0  0  0  0
 11 13  2  0  0  0  0
 11 16  1  0  0  0  0
 12 17  2  0  0  0  0
 12 18  1  0  0  0  0
 13 14  1  0  0  0  0
 16 21  1  0  0  0  0
 17 22  1  0  0  0  0
 17 33  1  0  0  0  0
 18 23  2  0  0  0  0
 18 34  1  0  0  0  0
 19 20  2  0  0  0  0
 19 25  1  0  0  0  0
 20 26  1  0  0  0  0
 21 27  2  0  0  0  0
 22 24  2  0  0  0  0
 22 35  1  0  0  0  0
 23 24  1  0  0  0  0
 23 36  1  0  0  0  0
 25 28  2  0  0  0  0
 25 38  1  0  0  0  0
 26 29  2  0  0  0  0
 26 39  1  0  0  0  0
 27 30  1  0  0  0  0
 27 40  1  0  0  0  0
 28 29  1  0  0  0  0
 29 41  1  0  0  0  0
 30 31  2  0  0  0  0
 30 42  1  0  0  0  0
 31 43  1  0  0  0  0
M  END
> <PUBCHEM_COMPOUND_CID>
3510382

> <PUBCHEM_COMPOUND_CANONICALIZED>
1

> <PUBCHEM_CACTVS_COMPLEXITY>
775

> <PUBCHEM_CACTVS_HBOND_ACCEPTOR>
7

> <PUBCHEM_CACTVS_HBOND_DONOR>
1

> <PUBCHEM_CACTVS_ROTATABLE_BOND>
4

> <PUBCHEM_CACTVS_SUBSKEYS>
AAADccB7OQBAEAAAAAAAAAAAAAAAAWJEAAAwYAAAAAAAAFgB/AAAHwRACAABrCzh3g4x1bMIFkisA61y9AKD+KllKjxJmD1+bPiOJrrkvZ+GOSjsxxPY67e8zvCuAgAAAAAAAQAEAAAAAAACAAAAAAAAAA==

> <PUBCHEM_IUPAC_OPENEYE_NAME>
2-(4-bromophenyl)-1-(6-fluoro-1,3-benzothiazol-2-yl)-3-(furan-2-carbonyl)-4-hydroxy-2H-pyrrol-5-one

> <PUBCHEM_IUPAC_CAS_NAME>
2-(4-bromophenyl)-1-(6-fluoro-1,3-benzothiazol-2-yl)-3-[2-furanyl(oxo)methyl]-4-hydroxy-2H-pyrrol-5-one

> <PUBCHEM_IUPAC_NAME>
2-(4-bromophenyl)-1-(6-fluoro-1,3-benzothiazol-2-yl)-3-(furan-2-carbonyl)-4-hydroxy-2H-pyrrol-5-one

> <PUBCHEM_IUPAC_SYSTEMATIC_NAME>
2-(4-bromophenyl)-1-(6-fluoranyl-1,3-benzothiazol-2-yl)-3-(furan-2-ylcarbonyl)-4-oxidanyl-2H-pyrrol-5-one

> <PUBCHEM_IUPAC_TRADITIONAL_NAME>
5-(4-bromophenyl)-1-(6-fluoro-1,3-benzothiazol-2-yl)-4-(2-furoyl)-3-hydroxy-3-pyrrolin-2-one

> <PUBCHEM_IUPAC_INCHI>
InChI=1S/C22H12BrFN2O4S/c23-12-5-3-11(4-6-12)18-17(19(27)15-2-1-9-30-15)20(28)21(29)26(18)22-25-14-8-7-13(24)10-16(14)31-22/h1-10,18,28H

> <PUBCHEM_IUPAC_INCHIKEY>
IPXUSQQGBGNBNZ-UHFFFAOYSA-N

> <PUBCHEM_XLOGP3_AA>
5.5

> <PUBCHEM_EXACT_MASS>
497.969

> <PUBCHEM_MOLECULAR_FORMULA>
C22H12BrFN2O4S

> <PUBCHEM_MOLECULAR_WEIGHT>
499.31

> <PUBCHEM_OPENEYE_CAN_SMILES>
C1=COC(=C1)C(=O)C2=C(C(=O)N(C2C3=CC=C(C=C3)Br)C4=NC5=C(S4)C=C(C=C5)F)O

> <PUBCHEM_OPENEYE_ISO_SMILES>
C1=COC(=C1)C(=O)C2=C(C(=O)N(C2C3=CC=C(C=C3)Br)C4=NC5=C(S4)C=C(C=C5)F)O

> <PUBCHEM_CACTVS_TPSA>
112

> <PUBCHEM_MONOISOTOPIC_WEIGHT>
497.969

> <PUBCHEM_TOTAL_CHARGE>
0

> <PUBCHEM_HEAVY_ATOM_COUNT>
31

> <PUBCHEM_ATOM_DEF_STEREO_COUNT>
0

> <PUBCHEM_ATOM_UDEF_STEREO_COUNT>
1

> <PUBCHEM_BOND_DEF_STEREO_COUNT>
0

> <PUBCHEM_BOND_UDEF_STEREO_COUNT>
0

> <PUBCHEM_ISOTOPIC_ATOM_COUNT>
0

> <PUBCHEM_COMPONENT_COUNT>
1

> <PUBCHEM_CACTVS_TAUTO_COUNT>
3

> <PUBCHEM_COORDINATE_TYPE>
1
5
255

> <PUBCHEM_BONDANNOTATIONS>
10  32  3
12  17  8
12  18  8
17  22  8
18  23  8
19  20  8
19  25  8
2  15  8
2  19  8
20  26  8
21  27  8
22  24  8
23  24  8
25  28  8
26  29  8
27  30  8
28  29  8
30  31  8
7  21  8
7  31  8
9  15  8
9  20  8

$$$$
3605180
  -OEChem-11021604552D

 61 65  0     1  0  0  0  0  0999 V2000
    5.5443    0.8735    0.0000 S   0  0  0  0  0  0  0  0  0  0  0  0
    9.4758    2.7660    0.0000 O   0  0  0  0  0  0  0  0  0  0  0  0
    7.4067    3.4383    0.0000 O   0  0  0  0  0  0  0  0  0  0  0  0
   10.5972    1.9753    0.0000 O   0  0  0  0  0  0  0  0  0  0  0  0
    9.3712   -0.4041    0.0000 O   0  0  0  0  0  0  0  0  0  0  0  0
    7.1279    1.6782    0.0000 N   0  0  0  0  0  0  0  0  0  0  0  0
    5.5443    2.4829    0.0000 N   0  0  0  0  0  0  0  0  0  0  0  0
    7.7157    0.8692    0.0000 C   0  0  3  0  0  0  0  0  0  0  0  0
    8.6668    1.1782    0.0000 C   0  0  0  0  0  0  0  0  0  0  0  0
    7.4067   -0.0819    0.0000 C   0  0  0  0  0  0  0  0  0  0  0  0
    8.6668    2.1782    0.0000 C   0  0  0  0  0  0  0  0  0  0  0  0
    7.7157    2.4872    0.0000 C   0  0  0  0  0  0  0  0  0  0  0  0
    6.1279    1.6782    0.0000 C   0  0  0  0  0  0  0  0  0  0  0  0
    6.4285   -0.2898    0.0000 C   0  0  0  0  0  0  0  0  0  0  0  0
    8.0758   -0.8250    0.0000 C   0  0  0  0  0  0  0  0  0  0  0  0
    6.7886   -1.9840    0.0000 C   0  0  0  0  0  0  0  0  0  0  0  0
    9.4758    0.5904    0.0000 C   0  0  0  0  0  0  0  0  0  0  0  0
    6.4796   -2.9350    0.0000 C   0  0  0  0  0  0  0  0  0  0  0  0
    6.1195   -1.2408    0.0000 C   0  0  0  0  0  0  0  0  0  0  0  0
    7.7668   -1.7761    0.0000 C   0  0  0  0  0  0  0  0  0  0  0  0
    4.5981    2.1782    0.0000 C   0  0  0  0  0  0  0  0  0  0  0  0
    4.5981    1.1782    0.0000 C   0  0  0  0  0  0  0  0  0  0  0  0
   10.3893    0.9971    0.0000 C   0  0  0  0  0  0  0  0  0  0  0  0
    3.7320    2.6782    0.0000 C   0  0  0  0  0  0  0  0  0  0  0  0
    7.1488   -3.6782    0.0000 C   0  0  0  0  0  0  0  0  0  0  0  0
    5.5015   -3.1430    0.0000 C   0  0  0  0  0  0  0  0  0  0  0  0
    3.7320    0.6782    0.0000 C   0  0  0  0  0  0  0  0  0  0  0  0
    2.8660    1.1782    0.0000 C   0  0  0  0  0  0  0  0  0  0  0  0
    2.8660    2.1782    0.0000 C   0  0  0  0  0  0  0  0  0  0  0  0
   11.2553    0.4971    0.0000 C   0  0  0  0  0  0  0  0  0  0  0  0
    3.7320    3.6782    0.0000 C   0  0  0  0  0  0  0  0  0  0  0  0
   11.5917    2.0798    0.0000 C   0  0  0  0  0  0  0  0  0  0  0  0
   11.9985    1.1663    0.0000 C   0  0  0  0  0  0  0  0  0  0  0  0
    2.0000    0.6782    0.0000 C   0  0  0  0  0  0  0  0  0  0  0  0
   12.0917    2.9458    0.0000 C   0  0  0  0  0  0  0  0  0  0  0  0
    7.1033    0.7722    0.0000 H   0  0  0  0  0  0  0  0  0  0  0  0
    6.0137    0.1710    0.0000 H   0  0  0  0  0  0  0  0  0  0  0  0
    8.6822   -0.6961    0.0000 H   0  0  0  0  0  0  0  0  0  0  0  0
    6.0648   -2.4743    0.0000 H   0  0  0  0  0  0  0  0  0  0  0  0
    5.5131   -1.3698    0.0000 H   0  0  0  0  0  0  0  0  0  0  0  0
    8.1816   -2.2368    0.0000 H   0  0  0  0  0  0  0  0  0  0  0  0
    5.3726   -2.5365    0.0000 H   0  0  0  0  0  0  0  0  0  0  0  0
    4.8950   -3.2719    0.0000 H   0  0  0  0  0  0  0  0  0  0  0  0
    5.6304   -3.7494    0.0000 H   0  0  0  0  0  0  0  0  0  0  0  0
    6.6880   -4.0931    0.0000 H   0  0  0  0  0  0  0  0  0  0  0  0
    7.5636   -4.1389    0.0000 H   0  0  0  0  0  0  0  0  0  0  0  0
    7.6095   -3.2633    0.0000 H   0  0  0  0  0  0  0  0  0  0  0  0
    3.7320    0.0582    0.0000 H   0  0  0  0  0  0  0  0  0  0  0  0
    9.4110    3.3826    0.0000 H   0  0  0  0  0  0  0  0  0  0  0  0
    2.3291    2.4882    0.0000 H   0  0  0  0  0  0  0  0  0  0  0  0
   11.3201   -0.1195    0.0000 H   0  0  0  0  0  0  0  0  0  0  0  0
    4.3520    3.6782    0.0000 H   0  0  0  0  0  0  0  0  0  0  0  0
    3.7320    4.2982    0.0000 H   0  0  0  0  0  0  0  0  0  0  0  0
    3.1120    3.6782    0.0000 H   0  0  0  0  0  0  0  0  0  0  0  0
   12.6049    1.0374    0.0000 H   0  0  0  0  0  0  0  0  0  0  0  0
    1.6900    1.2151    0.0000 H   0  0  0  0  0  0  0  0  0  0  0  0
    1.4631    0.3682    0.0000 H   0  0  0  0  0  0  0  0  0  0  0  0
    2.3100    0.1413    0.0000 H   0  0  0  0  0  0  0  0  0  0  0  0
   12.6287    2.6358    0.0000 H   0  0  0  0  0  0  0  0  0  0  0  0
   12.4017    3.4828    0.0000 H   0  0  0  0  0  0  0  0  0  0  0  0
   11.5548    3.2558    0.0000 H   0  0  0  0  0  0  0  0  0  0  0  0
  1 13  1  0  0  0  0
  1 22  1  0  0  0  0
  2 11  1  0  0  0  0
  2 49  1  0  0  0  0
  3 12  2  0  0  0  0
  4 23  1  0  0  0  0
  4 32  1  0  0  0  0
  5 17  2  0  0  0  0
  6  8  1  0  0  0  0
  6 12  1  0  0  0  0
  6 13  1  0  0  0  0
  7 13  2  0  0  0  0
  7 21  1  0  0  0  0
  8  9  1  0  0  0  0
  8 10  1  0  0  0  0
  8 36  1  0  0  0  0
  9 11  2  0  0  0  0
  9 17  1  0  0  0  0
 10 14  2  0  0  0  0
 10 15  1  0  0  0  0
 11 12  1  0  0  0  0
 14 19  1  0  0  0  0
 14 37  1  0  0  0  0
 15 20  2  0  0  0  0
 15 38  1  0  0  0  0
 16 18  1  0  0  0  0
 16 19  2  0  0  0  0
 16 20  1  0  0  0  0
 17 23  1  0  0  0  0
 18 25  1  0  0  0  0
 18 26  1  0  0  0  0
 18 39  1  0  0  0  0
 19 40  1  0  0  0  0
 20 41  1  0  0  0  0
 21 22  1  0  0  0  0
 21 24  2  0  0  0  0
 22 27  2  0  0  0  0
 23 30  2  0  0  0  0
 24 29  1  0  0  0  0
 24 31  1  0  0  0  0
 25 45  1  0  0  0  0
 25 46  1  0  0  0  0
 25 47  1  0  0  0  0
 26 42  1  0  0  0  0
 26 43  1  0  0  0  0
 26 44  1  0  0  0  0
 27 28  1  0  0  0  0
 27 48  1  0  0  0  0
 28 29  2  0  0  0  0
 28 34  1  0  0  0  0
 29 50  1  0  0  0  0
 30 33  1  0  0  0  0
 30 51  1  0  0  0  0
 31 52  1  0  0  0  0
 31 53  1  0  0  0  0
 31 54  1  0  0  0  0
 32 33  2  0  0  0  0
 32 35  1  0  0  0  0
 33 55  1  0  0  0  0
 34 56  1  0  0  0  0
 34 57  1  0  0  0  0
 34 58  1  0  0  0  0
 35 59  1  0  0  0  0
 35 60  1  0  0  0  0
 35 61  1  0  0  0  0
M  END
> <PUBCHEM_COMPOUND_CID>
3605180

> <PUBCHEM_COMPOUND_CANONICALIZED>
1

> <PUBCHEM_CACTVS_COMPLEXITY>
867

> <PUBCHEM_CACTVS_HBOND_ACCEPTOR>
6

> <PUBCHEM_CACTVS_HBOND_DONOR>
1

> <PUBCHEM_CACTVS_ROTATABLE_BOND>
5

> <PUBCHEM_CACTVS_SUBSKEYS>
AAADceB7OABAAAAAAAAAAAAAAAAAAWJEAAAwYAAAAAAAAFgB/AAAHgQACAAADSzB3gQz1bMIFkisA6VydAKD+KllKDhJmD1uTNiOJrrkvZ+GOSjsxxPY6ae8zvDuyAACgAACAQCQAAUAAAQCAAAAAAAAAA==

> <PUBCHEM_IUPAC_OPENEYE_NAME>
1-(4,6-dimethyl-1,3-benzothiazol-2-yl)-4-hydroxy-2-(4-isopropylphenyl)-3-(5-methylfuran-2-carbonyl)-2H-pyrrol-5-one

> <PUBCHEM_IUPAC_CAS_NAME>
1-(4,6-dimethyl-1,3-benzothiazol-2-yl)-4-hydroxy-3-[(5-methyl-2-furanyl)-oxomethyl]-2-(4-propan-2-ylphenyl)-2H-pyrrol-5-one

> <PUBCHEM_IUPAC_NAME>
1-(4,6-dimethyl-1,3-benzothiazol-2-yl)-4-hydroxy-3-(5-methylfuran-2-carbonyl)-2-(4-propan-2-ylphenyl)-2H-pyrrol-5-one

> <PUBCHEM_IUPAC_SYSTEMATIC_NAME>
1-(4,6-dimethyl-1,3-benzothiazol-2-yl)-3-(5-methylfuran-2-yl)carbonyl-4-oxidanyl-2-(4-propan-2-ylphenyl)-2H-pyrrol-5-one

> <PUBCHEM_IUPAC_TRADITIONAL_NAME>
1-(4,6-dimethyl-1,3-benzothiazol-2-yl)-3-hydroxy-4-(5-methyl-2-furoyl)-5-p-cumenyl-3-pyrrolin-2-one

> <PUBCHEM_IUPAC_INCHI>
InChI=1S/C28H26N2O4S/c1-14(2)18-7-9-19(10-8-18)24-22(25(31)20-11-6-17(5)34-20)26(32)27(33)30(24)28-29-23-16(4)12-15(3)13-21(23)35-28/h6-14,24,32H,1-5H3

> <PUBCHEM_IUPAC_INCHIKEY>
DWKVHFBKISEDDQ-UHFFFAOYSA-N

> <PUBCHEM_XLOGP3_AA>
7

> <PUBCHEM_EXACT_MASS>
486.161

> <PUBCHEM_MOLECULAR_FORMULA>
C28H26N2O4S

> <PUBCHEM_MOLECULAR_WEIGHT>
486.586

> <PUBCHEM_OPENEYE_CAN_SMILES>
CC1=CC=C(O1)C(=O)C2=C(C(=O)N(C2C3=CC=C(C=C3)C(C)C)C4=NC5=C(C=C(C=C5S4)C)C)O

> <PUBCHEM_OPENEYE_ISO_SMILES>
CC1=CC=C(O1)C(=O)C2=C(C(=O)N(C2C3=CC=C(C=C3)C(C)C)C4=NC5=C(C=C(C=C5S4)C)C)O

> <PUBCHEM_CACTVS_TPSA>
112

> <PUBCHEM_MONOISOTOPIC_WEIGHT>
486.161

> <PUBCHEM_TOTAL_CHARGE>
0

> <PUBCHEM_HEAVY_ATOM_COUNT>
35

> <PUBCHEM_ATOM_DEF_STEREO_COUNT>
0

> <PUBCHEM_ATOM_UDEF_STEREO_COUNT>
1

> <PUBCHEM_BOND_DEF_STEREO_COUNT>
0

> <PUBCHEM_BOND_UDEF_STEREO_COUNT>
0

> <PUBCHEM_ISOTOPIC_ATOM_COUNT>
0

> <PUBCHEM_COMPONENT_COUNT>
1

> <PUBCHEM_CACTVS_TAUTO_COUNT>
11

> <PUBCHEM_COORDINATE_TYPE>
1
5
255

> <PUBCHEM_BONDANNOTATIONS>
1  13  8
1  22  8
10  14  8
10  15  8
14  19  8
15  20  8
16  19  8
16  20  8
21  22  8
21  24  8
22  27  8
23  30  8
24  29  8
27  28  8
28  29  8
30  33  8
32  33  8
4  23  8
4  32  8
7  13  8
7  21  8
8  10  3

$$$$
3619463
  -OEChem-11021604552D

 53 57  0     1  0  0  0  0  0999 V2000
    7.2764    2.2313    0.0000 S   0  0  0  0  0  0  0  0  0  0  0  0
   12.3293    1.7237    0.0000 S   0  0  0  0  0  0  0  0  0  0  0  0
   11.2078    2.5144    0.0000 O   0  0  0  0  0  0  0  0  0  0  0  0
    9.1387    3.1867    0.0000 O   0  0  0  0  0  0  0  0  0  0  0  0
   11.1033   -0.6557    0.0000 O   0  0  0  0  0  0  0  0  0  0  0  0
    3.7320    2.4266    0.0000 O   0  0  0  0  0  0  0  0  0  0  0  0
    8.8600    1.4266    0.0000 N   0  0  0  0  0  0  0  0  0  0  0  0
    7.2764    0.6219    0.0000 N   0  0  0  0  0  0  0  0  0  0  0  0
    9.4477    0.6176    0.0000 C   0  0  3  0  0  0  0  0  0  0  0  0
   10.3988    0.9266    0.0000 C   0  0  0  0  0  0  0  0  0  0  0  0
    9.1387   -0.3335    0.0000 C   0  0  0  0  0  0  0  0  0  0  0  0
   10.3988    1.9266    0.0000 C   0  0  0  0  0  0  0  0  0  0  0  0
    9.4477    2.2356    0.0000 C   0  0  0  0  0  0  0  0  0  0  0  0
    7.8600    1.4266    0.0000 C   0  0  0  0  0  0  0  0  0  0  0  0
   11.2078    0.3388    0.0000 C   0  0  0  0  0  0  0  0  0  0  0  0
    8.1606   -0.5414    0.0000 C   0  0  0  0  0  0  0  0  0  0  0  0
    9.8078   -1.0766    0.0000 C   0  0  0  0  0  0  0  0  0  0  0  0
    6.3301    1.9266    0.0000 C   0  0  0  0  0  0  0  0  0  0  0  0
    7.8516   -1.4925    0.0000 C   0  0  0  0  0  0  0  0  0  0  0  0
    9.4988   -2.0277    0.0000 C   0  0  0  0  0  0  0  0  0  0  0  0
    6.3301    0.9266    0.0000 C   0  0  0  0  0  0  0  0  0  0  0  0
    8.5207   -2.2356    0.0000 C   0  0  0  0  0  0  0  0  0  0  0  0
   12.1214    0.7455    0.0000 C   0  0  0  0  0  0  0  0  0  0  0  0
    5.4641    2.4266    0.0000 C   0  0  0  0  0  0  0  0  0  0  0  0
    5.4641    0.4266    0.0000 C   0  0  0  0  0  0  0  0  0  0  0  0
    8.2117   -3.1867    0.0000 C   0  0  0  0  0  0  0  0  0  0  0  0
    4.5981    1.9266    0.0000 C   0  0  0  0  0  0  0  0  0  0  0  0
   12.9874    0.2455    0.0000 C   0  0  0  0  0  0  0  0  0  0  0  0
    4.5981    0.9266    0.0000 C   0  0  0  0  0  0  0  0  0  0  0  0
   13.7305    0.9147    0.0000 C   0  0  0  0  0  0  0  0  0  0  0  0
   13.3238    1.8282    0.0000 C   0  0  0  0  0  0  0  0  0  0  0  0
    2.8660    1.9266    0.0000 C   0  0  0  0  0  0  0  0  0  0  0  0
    2.0000    2.4266    0.0000 C   0  0  0  0  0  0  0  0  0  0  0  0
    9.8862    0.1792    0.0000 H   0  0  0  0  0  0  0  0  0  0  0  0
    7.7457   -0.0807    0.0000 H   0  0  0  0  0  0  0  0  0  0  0  0
   10.4143   -0.9477    0.0000 H   0  0  0  0  0  0  0  0  0  0  0  0
    7.2451   -1.6214    0.0000 H   0  0  0  0  0  0  0  0  0  0  0  0
    9.9137   -2.4884    0.0000 H   0  0  0  0  0  0  0  0  0  0  0  0
   11.1430    3.1310    0.0000 H   0  0  0  0  0  0  0  0  0  0  0  0
    5.4641    3.0466    0.0000 H   0  0  0  0  0  0  0  0  0  0  0  0
    5.4641   -0.1934    0.0000 H   0  0  0  0  0  0  0  0  0  0  0  0
    7.6220   -2.9951    0.0000 H   0  0  0  0  0  0  0  0  0  0  0  0
    8.0201   -3.7763    0.0000 H   0  0  0  0  0  0  0  0  0  0  0  0
    8.8013   -3.3782    0.0000 H   0  0  0  0  0  0  0  0  0  0  0  0
   13.0522   -0.3711    0.0000 H   0  0  0  0  0  0  0  0  0  0  0  0
    4.0611    0.6166    0.0000 H   0  0  0  0  0  0  0  0  0  0  0  0
   14.3370    0.7858    0.0000 H   0  0  0  0  0  0  0  0  0  0  0  0
   13.6338    2.3652    0.0000 H   0  0  0  0  0  0  0  0  0  0  0  0
    2.4675    1.4516    0.0000 H   0  0  0  0  0  0  0  0  0  0  0  0
    3.2646    1.4516    0.0000 H   0  0  0  0  0  0  0  0  0  0  0  0
    2.3100    2.9635    0.0000 H   0  0  0  0  0  0  0  0  0  0  0  0
    1.4631    2.7366    0.0000 H   0  0  0  0  0  0  0  0  0  0  0  0
    1.6900    1.8896    0.0000 H   0  0  0  0  0  0  0  0  0  0  0  0
  1 14  1  0  0  0  0
  1 18  1  0  0  0  0
  2 23  1  0  0  0  0
  2 31  1  0  0  0  0
  3 12  1  0  0  0  0
  3 39  1  0  0  0  0
  4 13  2  0  0  0  0
  5 15  2  0  0  0  0
  6 27  1  0  0  0  0
  6 32  1  0  0  0  0
  7  9  1  0  0  0  0
  7 13  1  0  0  0  0
  7 14  1  0  0  0  0
  8 14  2  0  0  0  0
  8 21  1  0  0  0  0
  9 10  1  0  0  0  0
  9 11  1  0  0  0  0
  9 34  1  0  0  0  0
 10 12  2  0  0  0  0
 10 15  1  0  0  0  0
 11 16  2  0  0  0  0
 11 17  1  0  0  0  0
 12 13  1  0  0  0  0
 15 23  1  0  0  0  0
 16 19  1  0  0  0  0
 16 35  1  0  0  0  0
 17 20  2  0  0  0  0
 17 36  1  0  0  0  0
 18 21  2  0  0  0  0
 18 24  1  0  0  0  0
 19 22  2  0  0  0  0
 19 37  1  0  0  0  0
 20 22  1  0  0  0  0
 20 38  1  0  0  0  0
 21 25  1  0  0  0  0
 22 26  1  0  0  0  0
 23 28  2  0  0  0  0
 24 27  2  0  0  0  0
 24 40  1  0  0  0  0
 25 29  2  0  0  0  0
 25 41  1  0  0  0  0
 26 42  1  0  0  0  0
 26 43  1  0  0  0  0
 26 44  1  0  0  0  0
 27 29  1  0  0  0  0
 28 30  1  0  0  0  0
 28 45  1  0  0  0  0
 29 46  1  0  0  0  0
 30 31  2  0  0  0  0
 30 47  1  0  0  0  0
 31 48  1  0  0  0  0
 32 33  1  0  0  0  0
 32 49  1  0  0  0  0
 32 50  1  0  0  0  0
 33 51  1  0  0  0  0
 33 52  1  0  0  0  0
 33 53  1  0  0  0  0
M  END
> <PUBCHEM_COMPOUND_CID>
3619463

> <PUBCHEM_COMPOUND_CANONICALIZED>
1

> <PUBCHEM_CACTVS_COMPLEXITY>
797

> <PUBCHEM_CACTVS_HBOND_ACCEPTOR>
7

> <PUBCHEM_CACTVS_HBOND_DONOR>
1

> <PUBCHEM_CACTVS_ROTATABLE_BOND>
6

> <PUBCHEM_CACTVS_SUBSKEYS>
AAADceB7OABgAAAAAAAAAAAAAAAAAWJEAAAwYAAAAAAAAFgB/AAAHgQACAAADCzl3gaz17MIFgisA6VydAKD+KllKjhJmD1+bNiOJrrkvZuGOSjsxxP46ae4yMCOQEAABAAAAQCAgAAIAAACAAAAAAAAAA==

> <PUBCHEM_IUPAC_OPENEYE_NAME>
1-(6-ethoxy-1,3-benzothiazol-2-yl)-4-hydroxy-2-(p-tolyl)-3-(thiophene-2-carbonyl)-2H-pyrrol-5-one

> <PUBCHEM_IUPAC_CAS_NAME>
1-(6-ethoxy-1,3-benzothiazol-2-yl)-4-hydroxy-2-(4-methylphenyl)-3-[oxo(thiophen-2-yl)methyl]-2H-pyrrol-5-one

> <PUBCHEM_IUPAC_NAME>
1-(6-ethoxy-1,3-benzothiazol-2-yl)-4-hydroxy-2-(4-methylphenyl)-3-(thiophene-2-carbonyl)-2H-pyrrol-5-one

> <PUBCHEM_IUPAC_SYSTEMATIC_NAME>
1-(6-ethoxy-1,3-benzothiazol-2-yl)-2-(4-methylphenyl)-4-oxidanyl-3-thiophen-2-ylcarbonyl-2H-pyrrol-5-one

> <PUBCHEM_IUPAC_TRADITIONAL_NAME>
1-(6-ethoxy-1,3-benzothiazol-2-yl)-3-hydroxy-5-(p-tolyl)-4-(2-thenoyl)-3-pyrrolin-2-one

> <PUBCHEM_IUPAC_INCHI>
InChI=1S/C25H20N2O4S2/c1-3-31-16-10-11-17-19(13-16)33-25(26-17)27-21(15-8-6-14(2)7-9-15)20(23(29)24(27)30)22(28)18-5-4-12-32-18/h4-13,21,29H,3H2,1-2H3

> <PUBCHEM_IUPAC_INCHIKEY>
DYCUASWAAOUEFG-UHFFFAOYSA-N

> <PUBCHEM_XLOGP3_AA>
6.1

> <PUBCHEM_EXACT_MASS>
476.086

> <PUBCHEM_MOLECULAR_FORMULA>
C25H20N2O4S2

> <PUBCHEM_MOLECULAR_WEIGHT>
476.565

> <PUBCHEM_OPENEYE_CAN_SMILES>
CCOC1=CC2=C(C=C1)N=C(S2)N3C(C(=C(C3=O)O)C(=O)C4=CC=CS4)C5=CC=C(C=C5)C

> <PUBCHEM_OPENEYE_ISO_SMILES>
CCOC1=CC2=C(C=C1)N=C(S2)N3C(C(=C(C3=O)O)C(=O)C4=CC=CS4)C5=CC=C(C=C5)C

> <PUBCHEM_CACTVS_TPSA>
136

> <PUBCHEM_MONOISOTOPIC_WEIGHT>
476.086

> <PUBCHEM_TOTAL_CHARGE>
0

> <PUBCHEM_HEAVY_ATOM_COUNT>
33

> <PUBCHEM_ATOM_DEF_STEREO_COUNT>
0

> <PUBCHEM_ATOM_UDEF_STEREO_COUNT>
1

> <PUBCHEM_BOND_DEF_STEREO_COUNT>
0

> <PUBCHEM_BOND_UDEF_STEREO_COUNT>
0

> <PUBCHEM_ISOTOPIC_ATOM_COUNT>
0

> <PUBCHEM_COMPONENT_COUNT>
1

> <PUBCHEM_CACTVS_TAUTO_COUNT>
3

> <PUBCHEM_COORDINATE_TYPE>
1
5
255

> <PUBCHEM_BONDANNOTATIONS>
1  14  8
1  18  8
11  16  8
11  17  8
16  19  8
17  20  8
18  21  8
18  24  8
19  22  8
2  23  8
2  31  8
20  22  8
21  25  8
23  28  8
24  27  8
25  29  8
27  29  8
28  30  8
30  31  8
8  14  8
8  21  8
9  11  3

$$$$
118729143
  -OEChem-11021604552D

 53 57  0     1  0  0  0  0  0999 V2000
    6.9852   -2.8418    0.0000 Cl  0  0  0  0  0  0  0  0  0  0  0  0
    7.2764    1.9240    0.0000 S   0  0  0  0  0  0  0  0  0  0  0  0
    9.1387    2.8794    0.0000 O   0  0  0  0  0  0  0  0  0  0  0  0
   11.2078    2.2071    0.0000 O   0  0  0  0  0  0  0  0  0  0  0  0
   12.1214    0.4382    0.0000 O   0  0  0  0  0  0  0  0  0  0  0  0
    3.7320    2.1193    0.0000 O   0  0  0  0  0  0  0  0  0  0  0  0
    8.8600    1.1193    0.0000 N   0  0  0  0  0  0  0  0  0  0  0  0
    7.2764    0.3146    0.0000 N   0  0  0  0  0  0  0  0  0  0  0  0
    9.4477    0.3103    0.0000 C   0  0  3  0  0  0  0  0  0  0  0  0
   10.3988    0.6193    0.0000 C   0  0  0  0  0  0  0  0  0  0  0  0
    8.8321   -0.4778    0.0000 C   0  0  0  0  0  0  0  0  0  0  0  0
    9.4477    1.9283    0.0000 C   0  0  0  0  0  0  0  0  0  0  0  0
   10.3988    1.6193    0.0000 C   0  0  0  0  0  0  0  0  0  0  0  0
    7.8600    1.1193    0.0000 C   0  0  0  0  0  0  0  0  0  0  0  0
   11.2078    0.0315    0.0000 C   0  0  0  0  0  0  0  0  0  0  0  0
    7.8418   -0.3386    0.0000 C   0  0  0  0  0  0  0  0  0  0  0  0
    9.2067   -1.4049    0.0000 C   0  0  0  0  0  0  0  0  0  0  0  0
   11.4498   -0.9388    0.0000 C   0  0  0  0  0  0  0  0  0  0  0  0
    6.3301    1.6193    0.0000 C   0  0  0  0  0  0  0  0  0  0  0  0
    6.3301    0.6193    0.0000 C   0  0  0  0  0  0  0  0  0  0  0  0
    7.2262   -1.1266    0.0000 C   0  0  0  0  0  0  0  0  0  0  0  0
    8.5910   -2.1929    0.0000 C   0  0  0  0  0  0  0  0  0  0  0  0
    7.6008   -2.0538    0.0000 C   0  0  0  0  0  0  0  0  0  0  0  0
    5.4641    2.1193    0.0000 C   0  0  0  0  0  0  0  0  0  0  0  0
    5.4641    0.1193    0.0000 C   0  0  0  0  0  0  0  0  0  0  0  0
   12.4110   -1.2144    0.0000 C   0  0  0  0  0  0  0  0  0  0  0  0
   10.7304   -1.6335    0.0000 C   0  0  0  0  0  0  0  0  0  0  0  0
    4.5981    1.6193    0.0000 C   0  0  0  0  0  0  0  0  0  0  0  0
    4.5981    0.6193    0.0000 C   0  0  0  0  0  0  0  0  0  0  0  0
   12.6529   -2.1847    0.0000 C   0  0  0  0  0  0  0  0  0  0  0  0
   10.9724   -2.6037    0.0000 C   0  0  0  0  0  0  0  0  0  0  0  0
   11.9337   -2.8794    0.0000 C   0  0  0  0  0  0  0  0  0  0  0  0
    2.8660    1.6193    0.0000 C   0  0  0  0  0  0  0  0  0  0  0  0
    2.0000    2.1193    0.0000 C   0  0  0  0  0  0  0  0  0  0  0  0
    9.8034   -0.1976    0.0000 H   0  0  0  0  0  0  0  0  0  0  0  0
    7.6096    0.2363    0.0000 H   0  0  0  0  0  0  0  0  0  0  0  0
    9.8206   -1.4912    0.0000 H   0  0  0  0  0  0  0  0  0  0  0  0
    6.6122   -1.0403    0.0000 H   0  0  0  0  0  0  0  0  0  0  0  0
    8.8233   -2.7678    0.0000 H   0  0  0  0  0  0  0  0  0  0  0  0
    5.4641    2.7393    0.0000 H   0  0  0  0  0  0  0  0  0  0  0  0
    5.4641   -0.5007    0.0000 H   0  0  0  0  0  0  0  0  0  0  0  0
   12.8570   -0.7838    0.0000 H   0  0  0  0  0  0  0  0  0  0  0  0
   10.1344   -1.4626    0.0000 H   0  0  0  0  0  0  0  0  0  0  0  0
   12.6230    0.0738    0.0000 H   0  0  0  0  0  0  0  0  0  0  0  0
    4.0611    0.3093    0.0000 H   0  0  0  0  0  0  0  0  0  0  0  0
   13.2489   -2.3556    0.0000 H   0  0  0  0  0  0  0  0  0  0  0  0
   10.5264   -3.0344    0.0000 H   0  0  0  0  0  0  0  0  0  0  0  0
   12.0837   -3.4809    0.0000 H   0  0  0  0  0  0  0  0  0  0  0  0
    2.4675    1.1443    0.0000 H   0  0  0  0  0  0  0  0  0  0  0  0
    3.2646    1.1443    0.0000 H   0  0  0  0  0  0  0  0  0  0  0  0
    2.3100    2.6562    0.0000 H   0  0  0  0  0  0  0  0  0  0  0  0
    1.4631    2.4293    0.0000 H   0  0  0  0  0  0  0  0  0  0  0  0
    1.6900    1.5824    0.0000 H   0  0  0  0  0  0  0  0  0  0  0  0
  1 23  1  0  0  0  0
  2 14  1  0  0  0  0
  2 19  1  0  0  0  0
  3 12  2  0  0  0  0
  4 13  2  0  0  0  0
  5 15  1  0  0  0  0
  5 44  1  0  0  0  0
  6 28  1  0  0  0  0
  6 33  1  0  0  0  0
  7  9  1  0  0  0  0
  7 12  1  0  0  0  0
  7 14  1  0  0  0  0
  8 14  2  0  0  0  0
  8 20  1  0  0  0  0
  9 10  1  0  0  0  0
  9 11  1  0  0  0  0
  9 35  1  0  0  0  0
 10 13  1  0  0  0  0
 10 15  2  0  0  0  0
 11 16  2  0  0  0  0
 11 17  1  0  0  0  0
 12 13  1  0  0  0  0
 15 18  1  0  0  0  0
 16 21  1  0  0  0  0
 16 36  1  0  0  0  0
 17 22  2  0  0  0  0
 17 37  1  0  0  0  0
 18 26  2  0  0  0  0
 18 27  1  0  0  0  0
 19 20  2  0  0  0  0
 19 24  1  0  0  0  0
 20 25  1  0  0  0  0
 21 23  2  0  0  0  0
 21 38  1  0  0  0  0
 22 23  1  0  0  0  0
 22 39  1  0  0  0  0
 24 28  2  0  0  0  0
 24 40  1  0  0  0  0
 25 29  2  0  0  0  0
 25 41  1  0  0  0  0
 26 30  1  0  0  0  0
 26 42  1  0  0  0  0
 27 31  2  0  0  0  0
 27 43  1  0  0  0  0
 28 29  1  0  0  0  0
 29 45  1  0  0  0  0
 30 32  2  0  0  0  0
 30 46  1  0  0  0  0
 31 32  1  0  0  0  0
 31 47  1  0  0  0  0
 32 48  1  0  0  0  0
 33 34  1  0  0  0  0
 33 49  1  0  0  0  0
 33 50  1  0  0  0  0
 34 51  1  0  0  0  0
 34 52  1  0  0  0  0
 34 53  1  0  0  0  0
M  END
> <PUBCHEM_COMPOUND_CID>
118729143

> <PUBCHEM_COMPOUND_CANONICALIZED>
1

> <PUBCHEM_CACTVS_COMPLEXITY>
809

> <PUBCHEM_CACTVS_HBOND_ACCEPTOR>
6

> <PUBCHEM_CACTVS_HBOND_DONOR>
1

> <PUBCHEM_CACTVS_ROTATABLE_BOND>
5

> <PUBCHEM_CACTVS_SUBSKEYS>
AAADceB7OABEAAAAAAAAAAAAAAAAAWLAAAAwYMAAAAAAAFgB9AAAHgYACAAADC7h3iYz17MIFgisA6VydACD+KlhLzhJmD2+btiMJrrlu7uGeCjsxxPI+Se8yKCOBEAABAAAAQAIgAAIAAACAAAAAAAAAA==

> <PUBCHEM_IUPAC_OPENEYE_NAME>
(4Z)-5-(4-chlorophenyl)-1-(6-ethoxy-1,3-benzothiazol-2-yl)-4-[hydroxy(phenyl)methylene]pyrrolidine-2,3-dione

> <PUBCHEM_IUPAC_CAS_NAME>
(4Z)-5-(4-chlorophenyl)-1-(6-ethoxy-1,3-benzothiazol-2-yl)-4-[hydroxy(phenyl)methylidene]pyrrolidine-2,3-dione

> <PUBCHEM_IUPAC_NAME>
(4Z)-5-(4-chlorophenyl)-1-(6-ethoxy-1,3-benzothiazol-2-yl)-4-[hydroxy(phenyl)methylidene]pyrrolidine-2,3-dione

> <PUBCHEM_IUPAC_SYSTEMATIC_NAME>
(4Z)-5-(4-chlorophenyl)-1-(6-ethoxy-1,3-benzothiazol-2-yl)-4-[oxidanyl(phenyl)methylidene]pyrrolidine-2,3-dione

> <PUBCHEM_IUPAC_TRADITIONAL_NAME>
(4Z)-5-(4-chlorophenyl)-1-(6-ethoxy-1,3-benzothiazol-2-yl)-4-[hydroxy(phenyl)methylene]pyrrolidine-2,3-quinone

> <PUBCHEM_IUPAC_INCHI>
InChI=1S/C26H19ClN2O4S/c1-2-33-18-12-13-19-20(14-18)34-26(28-19)29-22(15-8-10-17(27)11-9-15)21(24(31)25(29)32)23(30)16-6-4-3-5-7-16/h3-14,22,30H,2H2,1H3/b23-21-

> <PUBCHEM_IUPAC_INCHIKEY>
VKUXASXOVZAIPI-LNVKXUELSA-N

> <PUBCHEM_XLOGP3_AA>
6.3

> <PUBCHEM_EXACT_MASS>
490.075

> <PUBCHEM_MOLECULAR_FORMULA>
C26H19ClN2O4S

> <PUBCHEM_MOLECULAR_WEIGHT>
490.958

> <PUBCHEM_OPENEYE_CAN_SMILES>
CCOC1=CC2=C(C=C1)N=C(S2)N3C(C(=C(C4=CC=CC=C4)O)C(=O)C3=O)C5=CC=C(C=C5)Cl

> <PUBCHEM_OPENEYE_ISO_SMILES>
CCOC1=CC2=C(C=C1)N=C(S2)N3C(/C(=C(\C4=CC=CC=C4)/O)/C(=O)C3=O)C5=CC=C(C=C5)Cl

> <PUBCHEM_CACTVS_TPSA>
108

> <PUBCHEM_MONOISOTOPIC_WEIGHT>
490.075

> <PUBCHEM_TOTAL_CHARGE>
0

> <PUBCHEM_HEAVY_ATOM_COUNT>
34

> <PUBCHEM_ATOM_DEF_STEREO_COUNT>
0

> <PUBCHEM_ATOM_UDEF_STEREO_COUNT>
1

> <PUBCHEM_BOND_DEF_STEREO_COUNT>
1

> <PUBCHEM_BOND_UDEF_STEREO_COUNT>
0

> <PUBCHEM_ISOTOPIC_ATOM_COUNT>
0

> <PUBCHEM_COMPONENT_COUNT>
1

> <PUBCHEM_CACTVS_TAUTO_COUNT>
3

> <PUBCHEM_COORDINATE_TYPE>
1
5
255

> <PUBCHEM_BONDANNOTATIONS>
11  16  8
11  17  8
16  21  8
17  22  8
18  26  8
18  27  8
19  20  8
19  24  8
2  14  8
2  19  8
20  25  8
21  23  8
22  23  8
24  28  8
25  29  8
26  30  8
27  31  8
28  29  8
30  32  8
31  32  8
8  14  8
8  20  8
9  11  3

$$$$
118729146
  -OEChem-11021604552D

 64 68  0     1  0  0  0  0  0999 V2000
    5.5443    2.4092    0.0000 S   0  0  0  0  0  0  0  0  0  0  0  0
    7.4067    3.3645    0.0000 O   0  0  0  0  0  0  0  0  0  0  0  0
    9.4758    2.6922    0.0000 O   0  0  0  0  0  0  0  0  0  0  0  0
   10.3893    0.9234    0.0000 O   0  0  0  0  0  0  0  0  0  0  0  0
    7.1279    1.6044    0.0000 N   0  0  0  0  0  0  0  0  0  0  0  0
    5.5443    0.7997    0.0000 N   0  0  0  0  0  0  0  0  0  0  0  0
    7.7157    0.7954    0.0000 C   0  0  3  0  0  0  0  0  0  0  0  0
    5.2531   -2.3567    0.0000 C   0  0  0  0  0  0  0  0  0  0  0  0
    7.1001    0.0074    0.0000 C   0  0  0  0  0  0  0  0  0  0  0  0
    8.6668    1.1044    0.0000 C   0  0  0  0  0  0  0  0  0  0  0  0
    5.8688   -1.5687    0.0000 C   0  0  0  0  0  0  0  0  0  0  0  0
    6.1098    0.1466    0.0000 C   0  0  0  0  0  0  0  0  0  0  0  0
    7.4746   -0.9198    0.0000 C   0  0  0  0  0  0  0  0  0  0  0  0
    5.4941   -0.6414    0.0000 C   0  0  0  0  0  0  0  0  0  0  0  0
    6.8590   -1.7078    0.0000 C   0  0  0  0  0  0  0  0  0  0  0  0
    7.7157    2.4134    0.0000 C   0  0  0  0  0  0  0  0  0  0  0  0
    8.6668    2.1044    0.0000 C   0  0  0  0  0  0  0  0  0  0  0  0
    4.6374   -3.1447    0.0000 C   0  0  0  0  0  0  0  0  0  0  0  0
    4.4650   -1.7410    0.0000 C   0  0  0  0  0  0  0  0  0  0  0  0
    6.0411   -2.9723    0.0000 C   0  0  0  0  0  0  0  0  0  0  0  0
    6.1279    1.6044    0.0000 C   0  0  0  0  0  0  0  0  0  0  0  0
    9.4758    0.5167    0.0000 C   0  0  0  0  0  0  0  0  0  0  0  0
    9.7178   -0.4536    0.0000 C   0  0  0  0  0  0  0  0  0  0  0  0
    4.5981    2.1044    0.0000 C   0  0  0  0  0  0  0  0  0  0  0  0
    4.5981    1.1044    0.0000 C   0  0  0  0  0  0  0  0  0  0  0  0
   10.6789   -0.7293    0.0000 C   0  0  0  0  0  0  0  0  0  0  0  0
    8.9984   -1.1483    0.0000 C   0  0  0  0  0  0  0  0  0  0  0  0
    3.7320    2.6044    0.0000 C   0  0  0  0  0  0  0  0  0  0  0  0
    3.7320    0.6044    0.0000 C   0  0  0  0  0  0  0  0  0  0  0  0
    2.8660    2.1044    0.0000 C   0  0  0  0  0  0  0  0  0  0  0  0
    2.8660    1.1044    0.0000 C   0  0  0  0  0  0  0  0  0  0  0  0
   10.9209   -1.6996    0.0000 C   0  0  0  0  0  0  0  0  0  0  0  0
    9.2403   -2.1186    0.0000 C   0  0  0  0  0  0  0  0  0  0  0  0
   10.2016   -2.3942    0.0000 C   0  0  0  0  0  0  0  0  0  0  0  0
    2.0000    2.6044    0.0000 C   0  0  0  0  0  0  0  0  0  0  0  0
   10.4435   -3.3645    0.0000 C   0  0  0  0  0  0  0  0  0  0  0  0
    8.0713    0.2876    0.0000 H   0  0  0  0  0  0  0  0  0  0  0  0
    5.8775    0.7214    0.0000 H   0  0  0  0  0  0  0  0  0  0  0  0
    8.0886   -1.0061    0.0000 H   0  0  0  0  0  0  0  0  0  0  0  0
    4.8801   -0.5552    0.0000 H   0  0  0  0  0  0  0  0  0  0  0  0
    7.0912   -2.2826    0.0000 H   0  0  0  0  0  0  0  0  0  0  0  0
    4.1489   -2.7630    0.0000 H   0  0  0  0  0  0  0  0  0  0  0  0
    4.2557   -3.6332    0.0000 H   0  0  0  0  0  0  0  0  0  0  0  0
    5.1260   -3.5264    0.0000 H   0  0  0  0  0  0  0  0  0  0  0  0
    4.8468   -1.2524    0.0000 H   0  0  0  0  0  0  0  0  0  0  0  0
    3.9765   -1.3593    0.0000 H   0  0  0  0  0  0  0  0  0  0  0  0
    4.0834   -2.2296    0.0000 H   0  0  0  0  0  0  0  0  0  0  0  0
    5.6594   -3.4609    0.0000 H   0  0  0  0  0  0  0  0  0  0  0  0
    6.5297   -3.3540    0.0000 H   0  0  0  0  0  0  0  0  0  0  0  0
    6.4228   -2.4838    0.0000 H   0  0  0  0  0  0  0  0  0  0  0  0
   11.1249   -0.2986    0.0000 H   0  0  0  0  0  0  0  0  0  0  0  0
    8.4024   -0.9774    0.0000 H   0  0  0  0  0  0  0  0  0  0  0  0
   10.8909    0.5590    0.0000 H   0  0  0  0  0  0  0  0  0  0  0  0
    3.7320    3.2244    0.0000 H   0  0  0  0  0  0  0  0  0  0  0  0
    3.7320   -0.0156    0.0000 H   0  0  0  0  0  0  0  0  0  0  0  0
    2.3291    0.7944    0.0000 H   0  0  0  0  0  0  0  0  0  0  0  0
   11.5169   -1.8705    0.0000 H   0  0  0  0  0  0  0  0  0  0  0  0
    8.7943   -2.5493    0.0000 H   0  0  0  0  0  0  0  0  0  0  0  0
    2.3100    3.1414    0.0000 H   0  0  0  0  0  0  0  0  0  0  0  0
    1.4631    2.9144    0.0000 H   0  0  0  0  0  0  0  0  0  0  0  0
    1.6900    2.0675    0.0000 H   0  0  0  0  0  0  0  0  0  0  0  0
    9.8420   -3.5145    0.0000 H   0  0  0  0  0  0  0  0  0  0  0  0
   10.5935   -3.9661    0.0000 H   0  0  0  0  0  0  0  0  0  0  0  0
   11.0451   -3.2145    0.0000 H   0  0  0  0  0  0  0  0  0  0  0  0
  1 21  1  0  0  0  0
  1 24  1  0  0  0  0
  2 16  2  0  0  0  0
  3 17  2  0  0  0  0
  4 22  1  0  0  0  0
  4 53  1  0  0  0  0
  5  7  1  0  0  0  0
  5 16  1  0  0  0  0
  5 21  1  0  0  0  0
  6 21  2  0  0  0  0
  6 25  1  0  0  0  0
  7  9  1  0  0  0  0
  7 10  1  0  0  0  0
  7 37  1  0  0  0  0
  8 11  1  0  0  0  0
  8 18  1  0  0  0  0
  8 19  1  0  0  0  0
  8 20  1  0  0  0  0
  9 12  2  0  0  0  0
  9 13  1  0  0  0  0
 10 17  1  0  0  0  0
 10 22  2  0  0  0  0
 11 14  2  0  0  0  0
 11 15  1  0  0  0  0
 12 14  1  0  0  0  0
 12 38  1  0  0  0  0
 13 15  2  0  0  0  0
 13 39  1  0  0  0  0
 14 40  1  0  0  0  0
 15 41  1  0  0  0  0
 16 17  1  0  0  0  0
 18 42  1  0  0  0  0
 18 43  1  0  0  0  0
 18 44  1  0  0  0  0
 19 45  1  0  0  0  0
 19 46  1  0  0  0  0
 19 47  1  0  0  0  0
 20 48  1  0  0  0  0
 20 49  1  0  0  0  0
 20 50  1  0  0  0  0
 22 23  1  0  0  0  0
 23 26  2  0  0  0  0
 23 27  1  0  0  0  0
 24 25  2  0  0  0  0
 24 28  1  0  0  0  0
 25 29  1  0  0  0  0
 26 32  1  0  0  0  0
 26 51  1  0  0  0  0
 27 33  2  0  0  0  0
 27 52  1  0  0  0  0
 28 30  2  0  0  0  0
 28 54  1  0  0  0  0
 29 31  2  0  0  0  0
 29 55  1  0  0  0  0
 30 31  1  0  0  0  0
 30 35  1  0  0  0  0
 31 56  1  0  0  0  0
 32 34  2  0  0  0  0
 32 57  1  0  0  0  0
 33 34  1  0  0  0  0
 33 58  1  0  0  0  0
 34 36  1  0  0  0  0
 35 59  1  0  0  0  0
 35 60  1  0  0  0  0
 35 61  1  0  0  0  0
 36 62  1  0  0  0  0
 36 63  1  0  0  0  0
 36 64  1  0  0  0  0
M  END
> <PUBCHEM_COMPOUND_CID>
118729146

> <PUBCHEM_COMPOUND_CANONICALIZED>
1

> <PUBCHEM_CACTVS_COMPLEXITY>
879

> <PUBCHEM_CACTVS_HBOND_ACCEPTOR>
5

> <PUBCHEM_CACTVS_HBOND_DONOR>
1

> <PUBCHEM_CACTVS_ROTATABLE_BOND>
4

> <PUBCHEM_CACTVS_SUBSKEYS>
AAADceB7MABAAAAAAAAAAAAAAAAAAWLAAAAwYMAAAAAAAFgB9AAAHgQACAAADizB3gQz0bMIEgisA6VydACD8KlhKjhJmD24bNiIJrrgmbGEcAhsxwPI2SecyPCPyAAAgAAAAQCQAAEAAAACAAAAAAAAAA==

> <PUBCHEM_IUPAC_OPENEYE_NAME>
(4Z)-5-(4-tert-butylphenyl)-4-[hydroxy(p-tolyl)methylene]-1-(6-methyl-1,3-benzothiazol-2-yl)pyrrolidine-2,3-dione

> <PUBCHEM_IUPAC_CAS_NAME>
(4Z)-5-(4-tert-butylphenyl)-4-[hydroxy-(4-methylphenyl)methylidene]-1-(6-methyl-1,3-benzothiazol-2-yl)pyrrolidine-2,3-dione

> <PUBCHEM_IUPAC_NAME>
(4Z)-5-(4-tert-butylphenyl)-4-[hydroxy-(4-methylphenyl)methylidene]-1-(6-methyl-1,3-benzothiazol-2-yl)pyrrolidine-2,3-dione

> <PUBCHEM_IUPAC_SYSTEMATIC_NAME>
(4Z)-5-(4-tert-butylphenyl)-1-(6-methyl-1,3-benzothiazol-2-yl)-4-[(4-methylphenyl)-oxidanyl-methylidene]pyrrolidine-2,3-dione

> <PUBCHEM_IUPAC_TRADITIONAL_NAME>
(4Z)-5-(4-tert-butylphenyl)-4-[hydroxy(p-tolyl)methylene]-1-(6-methyl-1,3-benzothiazol-2-yl)pyrrolidine-2,3-quinone

> <PUBCHEM_IUPAC_INCHI>
InChI=1S/C30H28N2O3S/c1-17-6-9-20(10-7-17)26(33)24-25(19-11-13-21(14-12-19)30(3,4)5)32(28(35)27(24)34)29-31-22-15-8-18(2)16-23(22)36-29/h6-16,25,33H,1-5H3/b26-24-

> <PUBCHEM_IUPAC_INCHIKEY>
COPTZYDNJJYDRP-LCUIJRPUSA-N

> <PUBCHEM_XLOGP3_AA>
7.7

> <PUBCHEM_EXACT_MASS>
496.182

> <PUBCHEM_MOLECULAR_FORMULA>
C30H28N2O3S

> <PUBCHEM_MOLECULAR_WEIGHT>
496.625

> <PUBCHEM_OPENEYE_CAN_SMILES>
CC1=CC=C(C=C1)C(=C2C(N(C(=O)C2=O)C3=NC4=C(S3)C=C(C=C4)C)C5=CC=C(C=C5)C(C)(C)C)O

> <PUBCHEM_OPENEYE_ISO_SMILES>
CC1=CC=C(C=C1)/C(=C/2\C(N(C(=O)C2=O)C3=NC4=C(S3)C=C(C=C4)C)C5=CC=C(C=C5)C(C)(C)C)/O

> <PUBCHEM_CACTVS_TPSA>
98.7

> <PUBCHEM_MONOISOTOPIC_WEIGHT>
496.182

> <PUBCHEM_TOTAL_CHARGE>
0

> <PUBCHEM_HEAVY_ATOM_COUNT>
36

> <PUBCHEM_ATOM_DEF_STEREO_COUNT>
0

> <PUBCHEM_ATOM_UDEF_STEREO_COUNT>
1

> <PUBCHEM_BOND_DEF_STEREO_COUNT>
1

> <PUBCHEM_BOND_UDEF_STEREO_COUNT>
0

> <PUBCHEM_ISOTOPIC_ATOM_COUNT>
0

> <PUBCHEM_COMPONENT_COUNT>
1

> <PUBCHEM_CACTVS_TAUTO_COUNT>
33

> <PUBCHEM_COORDINATE_TYPE>
1
5
255

> <PUBCHEM_BONDANNOTATIONS>
1  21  8
1  24  8
11  14  8
11  15  8
12  14  8
13  15  8
23  26  8
23  27  8
24  25  8
24  28  8
25  29  8
26  32  8
27  33  8
28  30  8
29  31  8
30  31  8
32  34  8
33  34  8
6  21  8
6  25  8
7  9  3
9  12  8
9  13  8

$$$$
3839807
  -OEChem-11021604552D

 47 51  0     1  0  0  0  0  0999 V2000
    7.3456   -3.1867    0.0000 Cl  0  0  0  0  0  0  0  0  0  0  0  0
    6.4103    2.2313    0.0000 S   0  0  0  0  0  0  0  0  0  0  0  0
   10.3418    2.5144    0.0000 O   0  0  0  0  0  0  0  0  0  0  0  0
    8.2727    3.1867    0.0000 O   0  0  0  0  0  0  0  0  0  0  0  0
   10.2373   -0.6557    0.0000 O   0  0  0  0  0  0  0  0  0  0  0  0
   11.4632    1.7237    0.0000 O   0  0  0  0  0  0  0  0  0  0  0  0
    2.8660    2.4266    0.0000 O   0  0  0  0  0  0  0  0  0  0  0  0
    7.9939    1.4266    0.0000 N   0  0  0  0  0  0  0  0  0  0  0  0
    6.4103    0.6219    0.0000 N   0  0  0  0  0  0  0  0  0  0  0  0
    8.5817    0.6176    0.0000 C   0  0  3  0  0  0  0  0  0  0  0  0
    9.5328    0.9266    0.0000 C   0  0  0  0  0  0  0  0  0  0  0  0
    8.2727   -0.3335    0.0000 C   0  0  0  0  0  0  0  0  0  0  0  0
    9.5328    1.9266    0.0000 C   0  0  0  0  0  0  0  0  0  0  0  0
    8.5817    2.2356    0.0000 C   0  0  0  0  0  0  0  0  0  0  0  0
    6.9939    1.4266    0.0000 C   0  0  0  0  0  0  0  0  0  0  0  0
   10.3418    0.3388    0.0000 C   0  0  0  0  0  0  0  0  0  0  0  0
    7.2946   -0.5414    0.0000 C   0  0  0  0  0  0  0  0  0  0  0  0
    8.9418   -1.0766    0.0000 C   0  0  0  0  0  0  0  0  0  0  0  0
    5.4641    1.9266    0.0000 C   0  0  0  0  0  0  0  0  0  0  0  0
    5.4641    0.9266    0.0000 C   0  0  0  0  0  0  0  0  0  0  0  0
   11.2553    0.7455    0.0000 C   0  0  0  0  0  0  0  0  0  0  0  0
    6.9855   -1.4925    0.0000 C   0  0  0  0  0  0  0  0  0  0  0  0
    8.6328   -2.0277    0.0000 C   0  0  0  0  0  0  0  0  0  0  0  0
    7.6547   -2.2356    0.0000 C   0  0  0  0  0  0  0  0  0  0  0  0
    4.5981    2.4266    0.0000 C   0  0  0  0  0  0  0  0  0  0  0  0
    4.5981    0.4266    0.0000 C   0  0  0  0  0  0  0  0  0  0  0  0
   12.1214    0.2455    0.0000 C   0  0  0  0  0  0  0  0  0  0  0  0
    3.7320    1.9266    0.0000 C   0  0  0  0  0  0  0  0  0  0  0  0
    3.7320    0.9266    0.0000 C   0  0  0  0  0  0  0  0  0  0  0  0
   12.8645    0.9147    0.0000 C   0  0  0  0  0  0  0  0  0  0  0  0
   12.4578    1.8282    0.0000 C   0  0  0  0  0  0  0  0  0  0  0  0
    2.0000    1.9266    0.0000 C   0  0  0  0  0  0  0  0  0  0  0  0
    9.0201    0.1792    0.0000 H   0  0  0  0  0  0  0  0  0  0  0  0
    6.8797   -0.0807    0.0000 H   0  0  0  0  0  0  0  0  0  0  0  0
    9.5483   -0.9477    0.0000 H   0  0  0  0  0  0  0  0  0  0  0  0
    6.3791   -1.6214    0.0000 H   0  0  0  0  0  0  0  0  0  0  0  0
    9.0477   -2.4884    0.0000 H   0  0  0  0  0  0  0  0  0  0  0  0
   10.2770    3.1310    0.0000 H   0  0  0  0  0  0  0  0  0  0  0  0
    4.5981    3.0466    0.0000 H   0  0  0  0  0  0  0  0  0  0  0  0
    4.5981   -0.1934    0.0000 H   0  0  0  0  0  0  0  0  0  0  0  0
   12.1862   -0.3711    0.0000 H   0  0  0  0  0  0  0  0  0  0  0  0
    3.1951    0.6166    0.0000 H   0  0  0  0  0  0  0  0  0  0  0  0
   13.4710    0.7858    0.0000 H   0  0  0  0  0  0  0  0  0  0  0  0
   12.7678    2.3652    0.0000 H   0  0  0  0  0  0  0  0  0  0  0  0
    1.6900    2.4635    0.0000 H   0  0  0  0  0  0  0  0  0  0  0  0
    1.4631    1.6166    0.0000 H   0  0  0  0  0  0  0  0  0  0  0  0
    2.3100    1.3896    0.0000 H   0  0  0  0  0  0  0  0  0  0  0  0
  1 24  1  0  0  0  0
  2 15  1  0  0  0  0
  2 19  1  0  0  0  0
  3 13  1  0  0  0  0
  3 38  1  0  0  0  0
  4 14  2  0  0  0  0
  5 16  2  0  0  0  0
  6 21  1  0  0  0  0
  6 31  1  0  0  0  0
  7 28  1  0  0  0  0
  7 32  1  0  0  0  0
  8 10  1  0  0  0  0
  8 14  1  0  0  0  0
  8 15  1  0  0  0  0
  9 15  2  0  0  0  0
  9 20  1  0  0  0  0
 10 11  1  0  0  0  0
 10 12  1  0  0  0  0
 10 33  1  0  0  0  0
 11 13  2  0  0  0  0
 11 16  1  0  0  0  0
 12 17  2  0  0  0  0
 12 18  1  0  0  0  0
 13 14  1  0  0  0  0
 16 21  1  0  0  0  0
 17 22  1  0  0  0  0
 17 34  1  0  0  0  0
 18 23  2  0  0  0  0
 18 35  1  0  0  0  0
 19 20  2  0  0  0  0
 19 25  1  0  0  0  0
 20 26  1  0  0  0  0
 21 27  2  0  0  0  0
 22 24  2  0  0  0  0
 22 36  1  0  0  0  0
 23 24  1  0  0  0  0
 23 37  1  0  0  0  0
 25 28  2  0  0  0  0
 25 39  1  0  0  0  0
 26 29  2  0  0  0  0
 26 40  1  0  0  0  0
 27 30  1  0  0  0  0
 27 41  1  0  0  0  0
 28 29  1  0  0  0  0
 29 42  1  0  0  0  0
 30 31  2  0  0  0  0
 30 43  1  0  0  0  0
 31 44  1  0  0  0  0
 32 45  1  0  0  0  0
 32 46  1  0  0  0  0
 32 47  1  0  0  0  0
M  END
> <PUBCHEM_COMPOUND_CID>
3839807

> <PUBCHEM_COMPOUND_CANONICALIZED>
1

> <PUBCHEM_CACTVS_COMPLEXITY>
786

> <PUBCHEM_CACTVS_HBOND_ACCEPTOR>
7

> <PUBCHEM_CACTVS_HBOND_DONOR>
1

> <PUBCHEM_CACTVS_ROTATABLE_BOND>
5

> <PUBCHEM_CACTVS_SUBSKEYS>
AAADccB7OABEAAAAAAAAAAAAAAAAAWJEAAAwYAAAAAAAAFgB/AAAHgYACAAADC7h3iYz17MIFkisA61y9AKD+KllLzhJmD1+btiOJrrlv5+GOSjsxxPY6ae8zvCuBEAABAAAAQAIgAAIAAACAAAAAAAAAA==

> <PUBCHEM_IUPAC_OPENEYE_NAME>
2-(4-chlorophenyl)-3-(furan-2-carbonyl)-4-hydroxy-1-(6-methoxy-1,3-benzothiazol-2-yl)-2H-pyrrol-5-one

> <PUBCHEM_IUPAC_CAS_NAME>
2-(4-chlorophenyl)-3-[2-furanyl(oxo)methyl]-4-hydroxy-1-(6-methoxy-1,3-benzothiazol-2-yl)-2H-pyrrol-5-one

> <PUBCHEM_IUPAC_NAME>
2-(4-chlorophenyl)-3-(furan-2-carbonyl)-4-hydroxy-1-(6-methoxy-1,3-benzothiazol-2-yl)-2H-pyrrol-5-one

> <PUBCHEM_IUPAC_SYSTEMATIC_NAME>
2-(4-chlorophenyl)-3-(furan-2-ylcarbonyl)-1-(6-methoxy-1,3-benzothiazol-2-yl)-4-oxidanyl-2H-pyrrol-5-one

> <PUBCHEM_IUPAC_TRADITIONAL_NAME>
5-(4-chlorophenyl)-4-(2-furoyl)-3-hydroxy-1-(6-methoxy-1,3-benzothiazol-2-yl)-3-pyrrolin-2-one

> <PUBCHEM_IUPAC_INCHI>
InChI=1S/C23H15ClN2O5S/c1-30-14-8-9-15-17(11-14)32-23(25-15)26-19(12-4-6-13(24)7-5-12)18(21(28)22(26)29)20(27)16-3-2-10-31-16/h2-11,19,28H,1H3

> <PUBCHEM_IUPAC_INCHIKEY>
NMXIUSGRLXTBPG-UHFFFAOYSA-N

> <PUBCHEM_XLOGP3_AA>
5.3

> <PUBCHEM_EXACT_MASS>
466.039

> <PUBCHEM_MOLECULAR_FORMULA>
C23H15ClN2O5S

> <PUBCHEM_MOLECULAR_WEIGHT>
466.892

> <PUBCHEM_OPENEYE_CAN_SMILES>
COC1=CC2=C(C=C1)N=C(S2)N3C(C(=C(C3=O)O)C(=O)C4=CC=CO4)C5=CC=C(C=C5)Cl

> <PUBCHEM_OPENEYE_ISO_SMILES>
COC1=CC2=C(C=C1)N=C(S2)N3C(C(=C(C3=O)O)C(=O)C4=CC=CO4)C5=CC=C(C=C5)Cl

> <PUBCHEM_CACTVS_TPSA>
121

> <PUBCHEM_MONOISOTOPIC_WEIGHT>
466.039

> <PUBCHEM_TOTAL_CHARGE>
0

> <PUBCHEM_HEAVY_ATOM_COUNT>
32

> <PUBCHEM_ATOM_DEF_STEREO_COUNT>
0

> <PUBCHEM_ATOM_UDEF_STEREO_COUNT>
1

> <PUBCHEM_BOND_DEF_STEREO_COUNT>
0

> <PUBCHEM_BOND_UDEF_STEREO_COUNT>
0

> <PUBCHEM_ISOTOPIC_ATOM_COUNT>
0

> <PUBCHEM_COMPONENT_COUNT>
1

> <PUBCHEM_CACTVS_TAUTO_COUNT>
3

> <PUBCHEM_COORDINATE_TYPE>
1
5
255

> <PUBCHEM_BONDANNOTATIONS>
10  12  3
12  17  8
12  18  8
17  22  8
18  23  8
19  20  8
19  25  8
2  15  8
2  19  8
20  26  8
21  27  8
22  24  8
23  24  8
25  28  8
26  29  8
27  30  8
28  29  8
30  31  8
6  21  8
6  31  8
9  15  8
9  20  8

$$$$
6275436
  -OEChem-11021604552D

 62 67  0     1  0  0  0  0  0999 V2000
    2.0000    1.0658    0.0000 Cl  0  0  0  0  0  0  0  0  0  0  0  0
    5.5045    1.6304    0.0000 S   0  0  0  0  0  0  0  0  0  0  0  0
    9.4440    0.7599    0.0000 O   0  0  0  0  0  0  0  0  0  0  0  0
    9.2166    3.9235    0.0000 O   0  0  0  0  0  0  0  0  0  0  0  0
    7.0886    4.3759    0.0000 O   0  0  0  0  0  0  0  0  0  0  0  0
   12.9360    1.7252    0.0000 O   0  0  0  0  0  0  0  0  0  0  0  0
    6.8328   -2.0594    0.0000 O   0  0  0  0  0  0  0  0  0  0  0  0
   12.9360    3.7945    0.0000 O   0  0  0  0  0  0  0  0  0  0  0  0
    6.9953    2.5963    0.0000 N   0  0  0  0  0  0  0  0  0  0  0  0
    5.3362    3.2311    0.0000 N   0  0  0  0  0  0  0  0  0  0  0  0
    7.6644    1.8531    0.0000 C   0  0  3  0  0  0  0  0  0  0  0  0
    8.5780    2.2599    0.0000 C   0  0  0  0  0  0  0  0  0  0  0  0
    7.4565    0.8750    0.0000 C   0  0  0  0  0  0  0  0  0  0  0  0
    8.4734    3.2544    0.0000 C   0  0  0  0  0  0  0  0  0  0  0  0
    7.4953    3.4623    0.0000 C   0  0  0  0  0  0  0  0  0  0  0  0
    9.4440    1.7599    0.0000 C   0  0  0  0  0  0  0  0  0  0  0  0
    6.0008    2.4918    0.0000 C   0  0  0  0  0  0  0  0  0  0  0  0
    6.5054    0.5660    0.0000 C   0  0  0  0  0  0  0  0  0  0  0  0
    8.1996    0.2059    0.0000 C   0  0  0  0  0  0  0  0  0  0  0  0
   10.3100    2.2599    0.0000 C   0  0  0  0  0  0  0  0  0  0  0  0
    6.2975   -0.4122    0.0000 C   0  0  0  0  0  0  0  0  0  0  0  0
    7.9917   -0.7723    0.0000 C   0  0  0  0  0  0  0  0  0  0  0  0
    7.0407   -1.0813    0.0000 C   0  0  0  0  0  0  0  0  0  0  0  0
   11.1760    1.7599    0.0000 C   0  0  0  0  0  0  0  0  0  0  0  0
    4.5316    1.8346    0.0000 C   0  0  0  0  0  0  0  0  0  0  0  0
    4.4271    2.8291    0.0000 C   0  0  0  0  0  0  0  0  0  0  0  0
   10.3100    3.2599    0.0000 C   0  0  0  0  0  0  0  0  0  0  0  0
   12.0421    2.2599    0.0000 C   0  0  0  0  0  0  0  0  0  0  0  0
   12.0421    3.2599    0.0000 C   0  0  0  0  0  0  0  0  0  0  0  0
   11.1760    3.7599    0.0000 C   0  0  0  0  0  0  0  0  0  0  0  0
    3.7226    1.2468    0.0000 C   0  0  0  0  0  0  0  0  0  0  0  0
    3.5135    3.2358    0.0000 C   0  0  0  0  0  0  0  0  0  0  0  0
   13.8421    2.2391    0.0000 C   0  0  0  0  0  0  0  0  0  0  0  0
   13.8421    3.2807    0.0000 C   0  0  0  0  0  0  0  0  0  0  0  0
    7.5759   -2.7286    0.0000 C   0  0  0  0  0  0  0  0  0  0  0  0
    2.8090    1.6535    0.0000 C   0  0  0  0  0  0  0  0  0  0  0  0
    2.7045    2.6481    0.0000 C   0  0  0  0  0  0  0  0  0  0  0  0
    7.3680   -3.7067    0.0000 C   0  0  0  0  0  0  0  0  0  0  0  0
    8.1112   -4.3759    0.0000 C   0  0  0  0  0  0  0  0  0  0  0  0
    7.0655    1.6927    0.0000 H   0  0  0  0  0  0  0  0  0  0  0  0
    6.0447    0.9808    0.0000 H   0  0  0  0  0  0  0  0  0  0  0  0
    8.7893    0.3975    0.0000 H   0  0  0  0  0  0  0  0  0  0  0  0
    5.7079   -0.6038    0.0000 H   0  0  0  0  0  0  0  0  0  0  0  0
    8.4525   -1.1871    0.0000 H   0  0  0  0  0  0  0  0  0  0  0  0
   11.1760    1.1399    0.0000 H   0  0  0  0  0  0  0  0  0  0  0  0
    9.7731    3.5699    0.0000 H   0  0  0  0  0  0  0  0  0  0  0  0
   11.1760    4.3799    0.0000 H   0  0  0  0  0  0  0  0  0  0  0  0
    9.9809    0.4499    0.0000 H   0  0  0  0  0  0  0  0  0  0  0  0
    3.7874    0.6302    0.0000 H   0  0  0  0  0  0  0  0  0  0  0  0
    3.4487    3.8524    0.0000 H   0  0  0  0  0  0  0  0  0  0  0  0
   14.0511    1.6554    0.0000 H   0  0  0  0  0  0  0  0  0  0  0  0
   14.4529    2.3452    0.0000 H   0  0  0  0  0  0  0  0  0  0  0  0
   14.4529    3.1746    0.0000 H   0  0  0  0  0  0  0  0  0  0  0  0
   14.0511    3.8644    0.0000 H   0  0  0  0  0  0  0  0  0  0  0  0
    8.1508   -2.9608    0.0000 H   0  0  0  0  0  0  0  0  0  0  0  0
    7.9045   -2.2028    0.0000 H   0  0  0  0  0  0  0  0  0  0  0  0
    2.1381    2.9002    0.0000 H   0  0  0  0  0  0  0  0  0  0  0  0
    6.7932   -3.4745    0.0000 H   0  0  0  0  0  0  0  0  0  0  0  0
    7.0394   -4.2325    0.0000 H   0  0  0  0  0  0  0  0  0  0  0  0
    7.6963   -4.8366    0.0000 H   0  0  0  0  0  0  0  0  0  0  0  0
    8.5719   -4.7907    0.0000 H   0  0  0  0  0  0  0  0  0  0  0  0
    8.5260   -3.9151    0.0000 H   0  0  0  0  0  0  0  0  0  0  0  0
  1 36  1  0  0  0  0
  2 17  1  0  0  0  0
  2 25  1  0  0  0  0
  3 16  1  0  0  0  0
  3 48  1  0  0  0  0
  4 14  2  0  0  0  0
  5 15  2  0  0  0  0
  6 28  1  0  0  0  0
  6 33  1  0  0  0  0
  7 23  1  0  0  0  0
  7 35  1  0  0  0  0
  8 29  1  0  0  0  0
  8 34  1  0  0  0  0
  9 11  1  0  0  0  0
  9 15  1  0  0  0  0
  9 17  1  0  0  0  0
 10 17  2  0  0  0  0
 10 26  1  0  0  0  0
 11 12  1  0  0  0  0
 11 13  1  0  0  0  0
 11 40  1  0  0  0  0
 12 14  1  0  0  0  0
 12 16  2  0  0  0  0
 13 18  2  0  0  0  0
 13 19  1  0  0  0  0
 14 15  1  0  0  0  0
 16 20  1  0  0  0  0
 18 21  1  0  0  0  0
 18 41  1  0  0  0  0
 19 22  2  0  0  0  0
 19 42  1  0  0  0  0
 20 24  2  0  0  0  0
 20 27  1  0  0  0  0
 21 23  2  0  0  0  0
 21 43  1  0  0  0  0
 22 23  1  0  0  0  0
 22 44  1  0  0  0  0
 24 28  1  0  0  0  0
 24 45  1  0  0  0  0
 25 26  2  0  0  0  0
 25 31  1  0  0  0  0
 26 32  1  0  0  0  0
 27 30  2  0  0  0  0
 27 46  1  0  0  0  0
 28 29  2  0  0  0  0
 29 30  1  0  0  0  0
 30 47  1  0  0  0  0
 31 36  2  0  0  0  0
 31 49  1  0  0  0  0
 32 37  2  0  0  0  0
 32 50  1  0  0  0  0
 33 34  1  0  0  0  0
 33 51  1  0  0  0  0
 33 52  1  0  0  0  0
 34 53  1  0  0  0  0
 34 54  1  0  0  0  0
 35 38  1  0  0  0  0
 35 55  1  0  0  0  0
 35 56  1  0  0  0  0
 36 37  1  0  0  0  0
 37 57  1  0  0  0  0
 38 39  1  0  0  0  0
 38 58  1  0  0  0  0
 38 59  1  0  0  0  0
 39 60  1  0  0  0  0
 39 61  1  0  0  0  0
 39 62  1  0  0  0  0
M  END
> <PUBCHEM_COMPOUND_CID>
6275436

> <PUBCHEM_COMPOUND_CANONICALIZED>
1

> <PUBCHEM_CACTVS_COMPLEXITY>
958

> <PUBCHEM_CACTVS_HBOND_ACCEPTOR>
8

> <PUBCHEM_CACTVS_HBOND_DONOR>
1

> <PUBCHEM_CACTVS_ROTATABLE_BOND>
6

> <PUBCHEM_CACTVS_SUBSKEYS>
AAADceB7OABEAAAAAAAAAAAAAAAAAWLAAAA0YMEAAAAAAFiR9AAAHgYACAAADC7h3iYz17MIFgisA6VydACD+KlhLzhJmD2+7tiNJrrlu7uGeCrsxxPK+Sfc+L+OIABBABAAQQBAAIIAIACCAAAAAAAAAA==

> <PUBCHEM_IUPAC_OPENEYE_NAME>
(4E)-1-(6-chloro-1,3-benzothiazol-2-yl)-4-[2,3-dihydro-1,4-benzodioxin-6-yl(hydroxy)methylene]-5-(4-propoxyphenyl)pyrrolidine-2,3-dione

> <PUBCHEM_IUPAC_CAS_NAME>
(4E)-1-(6-chloro-1,3-benzothiazol-2-yl)-4-[2,3-dihydro-1,4-benzodioxin-6-yl(hydroxy)methylidene]-5-(4-propoxyphenyl)pyrrolidine-2,3-dione

> <PUBCHEM_IUPAC_NAME>
(4E)-1-(6-chloro-1,3-benzothiazol-2-yl)-4-[2,3-dihydro-1,4-benzodioxin-6-yl(hydroxy)methylidene]-5-(4-propoxyphenyl)pyrrolidine-2,3-dione

> <PUBCHEM_IUPAC_SYSTEMATIC_NAME>
(4E)-1-(6-chloranyl-1,3-benzothiazol-2-yl)-4-[2,3-dihydro-1,4-benzodioxin-6-yl(oxidanyl)methylidene]-5-(4-propoxyphenyl)pyrrolidine-2,3-dione

> <PUBCHEM_IUPAC_TRADITIONAL_NAME>
(4E)-1-(6-chloro-1,3-benzothiazol-2-yl)-4-[2,3-dihydro-1,4-benzodioxin-6-yl(hydroxy)methylene]-5-(4-propoxyphenyl)pyrrolidine-2,3-quinone

> <PUBCHEM_IUPAC_INCHI>
InChI=1S/C29H23ClN2O6S/c1-2-11-36-19-7-3-16(4-8-19)25-24(26(33)17-5-10-21-22(14-17)38-13-12-37-21)27(34)28(35)32(25)29-31-20-9-6-18(30)15-23(20)39-29/h3-10,14-15,25,33H,2,11-13H2,1H3/b26-24+

> <PUBCHEM_IUPAC_INCHIKEY>
BTJXWMZIBDUUFL-SHHOIMCASA-N

> <PUBCHEM_XLOGP3_AA>
6.5

> <PUBCHEM_EXACT_MASS>
562.097

> <PUBCHEM_MOLECULAR_FORMULA>
C29H23ClN2O6S

> <PUBCHEM_MOLECULAR_WEIGHT>
563.021

> <PUBCHEM_OPENEYE_CAN_SMILES>
CCCOC1=CC=C(C=C1)C2C(=C(C3=CC4=C(C=C3)OCCO4)O)C(=O)C(=O)N2C5=NC6=C(S5)C=C(C=C6)Cl

> <PUBCHEM_OPENEYE_ISO_SMILES>
CCCOC1=CC=C(C=C1)C2/C(=C(/C3=CC4=C(C=C3)OCCO4)\O)/C(=O)C(=O)N2C5=NC6=C(S5)C=C(C=C6)Cl

> <PUBCHEM_CACTVS_TPSA>
126

> <PUBCHEM_MONOISOTOPIC_WEIGHT>
562.097

> <PUBCHEM_TOTAL_CHARGE>
0

> <PUBCHEM_HEAVY_ATOM_COUNT>
39

> <PUBCHEM_ATOM_DEF_STEREO_COUNT>
0

> <PUBCHEM_ATOM_UDEF_STEREO_COUNT>
1

> <PUBCHEM_BOND_DEF_STEREO_COUNT>
1

> <PUBCHEM_BOND_UDEF_STEREO_COUNT>
0

> <PUBCHEM_ISOTOPIC_ATOM_COUNT>
0

> <PUBCHEM_COMPONENT_COUNT>
1

> <PUBCHEM_CACTVS_TAUTO_COUNT>
3

> <PUBCHEM_COORDINATE_TYPE>
1
5
255

> <PUBCHEM_BONDANNOTATIONS>
10  17  8
10  26  8
11  13  3
13  18  8
13  19  8
18  21  8
19  22  8
2  17  8
2  25  8
20  24  8
20  27  8
21  23  8
22  23  8
24  28  8
25  26  8
25  31  8
26  32  8
27  30  8
28  29  8
29  30  8
31  36  8
32  37  8
36  37  8

$$$$
6275437
  -OEChem-11021604552D

 65 70  0     1  0  0  0  0  0999 V2000
    2.0000    1.5548    0.0000 Cl  0  0  0  0  0  0  0  0  0  0  0  0
    5.5045    2.1195    0.0000 S   0  0  0  0  0  0  0  0  0  0  0  0
    9.4440    1.2490    0.0000 O   0  0  0  0  0  0  0  0  0  0  0  0
    9.2166    4.4126    0.0000 O   0  0  0  0  0  0  0  0  0  0  0  0
    7.0886    4.8649    0.0000 O   0  0  0  0  0  0  0  0  0  0  0  0
    6.8328   -1.5704    0.0000 O   0  0  0  0  0  0  0  0  0  0  0  0
   12.9360    2.2143    0.0000 O   0  0  0  0  0  0  0  0  0  0  0  0
   12.9360    4.2836    0.0000 O   0  0  0  0  0  0  0  0  0  0  0  0
    6.9953    3.0854    0.0000 N   0  0  0  0  0  0  0  0  0  0  0  0
    5.3362    3.7202    0.0000 N   0  0  0  0  0  0  0  0  0  0  0  0
    7.6644    2.3422    0.0000 C   0  0  3  0  0  0  0  0  0  0  0  0
    8.5780    2.7489    0.0000 C   0  0  0  0  0  0  0  0  0  0  0  0
    7.4565    1.3641    0.0000 C   0  0  0  0  0  0  0  0  0  0  0  0
    8.4734    3.7435    0.0000 C   0  0  0  0  0  0  0  0  0  0  0  0
    7.4953    3.9514    0.0000 C   0  0  0  0  0  0  0  0  0  0  0  0
    9.4440    2.2489    0.0000 C   0  0  0  0  0  0  0  0  0  0  0  0
    6.0008    2.9808    0.0000 C   0  0  0  0  0  0  0  0  0  0  0  0
    6.5054    1.0550    0.0000 C   0  0  0  0  0  0  0  0  0  0  0  0
    8.1996    0.6949    0.0000 C   0  0  0  0  0  0  0  0  0  0  0  0
   10.3100    2.7489    0.0000 C   0  0  0  0  0  0  0  0  0  0  0  0
    6.2975    0.0769    0.0000 C   0  0  0  0  0  0  0  0  0  0  0  0
    7.9917   -0.2832    0.0000 C   0  0  0  0  0  0  0  0  0  0  0  0
    7.0407   -0.5922    0.0000 C   0  0  0  0  0  0  0  0  0  0  0  0
   11.1760    2.2489    0.0000 C   0  0  0  0  0  0  0  0  0  0  0  0
    4.5316    2.3237    0.0000 C   0  0  0  0  0  0  0  0  0  0  0  0
    4.4271    3.3182    0.0000 C   0  0  0  0  0  0  0  0  0  0  0  0
   10.3100    3.7490    0.0000 C   0  0  0  0  0  0  0  0  0  0  0  0
   12.0421    2.7489    0.0000 C   0  0  0  0  0  0  0  0  0  0  0  0
   12.0421    3.7490    0.0000 C   0  0  0  0  0  0  0  0  0  0  0  0
   11.1760    4.2490    0.0000 C   0  0  0  0  0  0  0  0  0  0  0  0
    7.5759   -2.2395    0.0000 C   0  0  0  0  0  0  0  0  0  0  0  0
    3.7226    1.7359    0.0000 C   0  0  0  0  0  0  0  0  0  0  0  0
    3.5135    3.7249    0.0000 C   0  0  0  0  0  0  0  0  0  0  0  0
    7.3680   -3.2176    0.0000 C   0  0  0  0  0  0  0  0  0  0  0  0
   13.8421    2.7281    0.0000 C   0  0  0  0  0  0  0  0  0  0  0  0
   13.8421    3.7698    0.0000 C   0  0  0  0  0  0  0  0  0  0  0  0
    8.1112   -3.8868    0.0000 C   0  0  0  0  0  0  0  0  0  0  0  0
    2.8090    2.1426    0.0000 C   0  0  0  0  0  0  0  0  0  0  0  0
    2.7045    3.1371    0.0000 C   0  0  0  0  0  0  0  0  0  0  0  0
    7.9032   -4.8649    0.0000 C   0  0  0  0  0  0  0  0  0  0  0  0
    7.0655    2.1818    0.0000 H   0  0  0  0  0  0  0  0  0  0  0  0
    6.0447    1.4699    0.0000 H   0  0  0  0  0  0  0  0  0  0  0  0
    8.7893    0.8865    0.0000 H   0  0  0  0  0  0  0  0  0  0  0  0
    5.7079   -0.1147    0.0000 H   0  0  0  0  0  0  0  0  0  0  0  0
    8.4525   -0.6981    0.0000 H   0  0  0  0  0  0  0  0  0  0  0  0
   11.1760    1.6289    0.0000 H   0  0  0  0  0  0  0  0  0  0  0  0
    9.7731    4.0590    0.0000 H   0  0  0  0  0  0  0  0  0  0  0  0
    9.9809    0.9390    0.0000 H   0  0  0  0  0  0  0  0  0  0  0  0
   11.1760    4.8690    0.0000 H   0  0  0  0  0  0  0  0  0  0  0  0
    8.1508   -2.4718    0.0000 H   0  0  0  0  0  0  0  0  0  0  0  0
    7.9045   -1.7137    0.0000 H   0  0  0  0  0  0  0  0  0  0  0  0
    3.7874    1.1193    0.0000 H   0  0  0  0  0  0  0  0  0  0  0  0
    3.4487    4.3415    0.0000 H   0  0  0  0  0  0  0  0  0  0  0  0
    6.7932   -2.9854    0.0000 H   0  0  0  0  0  0  0  0  0  0  0  0
    7.0394   -3.7434    0.0000 H   0  0  0  0  0  0  0  0  0  0  0  0
   14.0511    2.1444    0.0000 H   0  0  0  0  0  0  0  0  0  0  0  0
   14.4529    2.8342    0.0000 H   0  0  0  0  0  0  0  0  0  0  0  0
   14.4529    3.6637    0.0000 H   0  0  0  0  0  0  0  0  0  0  0  0
   14.0511    4.3535    0.0000 H   0  0  0  0  0  0  0  0  0  0  0  0
    8.6860   -4.1190    0.0000 H   0  0  0  0  0  0  0  0  0  0  0  0
    8.4397   -3.3610    0.0000 H   0  0  0  0  0  0  0  0  0  0  0  0
    2.1381    3.3893    0.0000 H   0  0  0  0  0  0  0  0  0  0  0  0
    7.2968   -4.7360    0.0000 H   0  0  0  0  0  0  0  0  0  0  0  0
    7.7743   -5.4714    0.0000 H   0  0  0  0  0  0  0  0  0  0  0  0
    8.5097   -4.9938    0.0000 H   0  0  0  0  0  0  0  0  0  0  0  0
  1 38  1  0  0  0  0
  2 17  1  0  0  0  0
  2 25  1  0  0  0  0
  3 16  1  0  0  0  0
  3 48  1  0  0  0  0
  4 14  2  0  0  0  0
  5 15  2  0  0  0  0
  6 23  1  0  0  0  0
  6 31  1  0  0  0  0
  7 28  1  0  0  0  0
  7 35  1  0  0  0  0
  8 29  1  0  0  0  0
  8 36  1  0  0  0  0
  9 11  1  0  0  0  0
  9 15  1  0  0  0  0
  9 17  1  0  0  0  0
 10 17  2  0  0  0  0
 10 26  1  0  0  0  0
 11 12  1  0  0  0  0
 11 13  1  0  0  0  0
 11 41  1  0  0  0  0
 12 14  1  0  0  0  0
 12 16  2  0  0  0  0
 13 18  2  0  0  0  0
 13 19  1  0  0  0  0
 14 15  1  0  0  0  0
 16 20  1  0  0  0  0
 18 21  1  0  0  0  0
 18 42  1  0  0  0  0
 19 22  2  0  0  0  0
 19 43  1  0  0  0  0
 20 24  2  0  0  0  0
 20 27  1  0  0  0  0
 21 23  2  0  0  0  0
 21 44  1  0  0  0  0
 22 23  1  0  0  0  0
 22 45  1  0  0  0  0
 24 28  1  0  0  0  0
 24 46  1  0  0  0  0
 25 26  2  0  0  0  0
 25 32  1  0  0  0  0
 26 33  1  0  0  0  0
 27 30  2  0  0  0  0
 27 47  1  0  0  0  0
 28 29  2  0  0  0  0
 29 30  1  0  0  0  0
 30 49  1  0  0  0  0
 31 34  1  0  0  0  0
 31 50  1  0  0  0  0
 31 51  1  0  0  0  0
 32 38  2  0  0  0  0
 32 52  1  0  0  0  0
 33 39  2  0  0  0  0
 33 53  1  0  0  0  0
 34 37  1  0  0  0  0
 34 54  1  0  0  0  0
 34 55  1  0  0  0  0
 35 36  1  0  0  0  0
 35 56  1  0  0  0  0
 35 57  1  0  0  0  0
 36 58  1  0  0  0  0
 36 59  1  0  0  0  0
 37 40  1  0  0  0  0
 37 60  1  0  0  0  0
 37 61  1  0  0  0  0
 38 39  1  0  0  0  0
 39 62  1  0  0  0  0
 40 63  1  0  0  0  0
 40 64  1  0  0  0  0
 40 65  1  0  0  0  0
M  END
> <PUBCHEM_COMPOUND_CID>
6275437

> <PUBCHEM_COMPOUND_CANONICALIZED>
1

> <PUBCHEM_CACTVS_COMPLEXITY>
974

> <PUBCHEM_CACTVS_HBOND_ACCEPTOR>
8

> <PUBCHEM_CACTVS_HBOND_DONOR>
1

> <PUBCHEM_CACTVS_ROTATABLE_BOND>
7

> <PUBCHEM_CACTVS_SUBSKEYS>
AAADceB7OABEAAAAAAAAAAAAAAAAAWLAAAA0YMEAAAAAAFiR9AAAHgYACAAADC7h3iYz17MIFgisA6VydACD+KlhLzhJmD2+7tiNJrrlu7uGeCrsxxPK+Sfc+L+OIABBABAAQQBAAIIAIACCAAAAAAAAAA==

> <PUBCHEM_IUPAC_OPENEYE_NAME>
(4E)-5-(4-butoxyphenyl)-1-(6-chloro-1,3-benzothiazol-2-yl)-4-[2,3-dihydro-1,4-benzodioxin-6-yl(hydroxy)methylene]pyrrolidine-2,3-dione

> <PUBCHEM_IUPAC_CAS_NAME>
(4E)-5-(4-butoxyphenyl)-1-(6-chloro-1,3-benzothiazol-2-yl)-4-[2,3-dihydro-1,4-benzodioxin-6-yl(hydroxy)methylidene]pyrrolidine-2,3-dione

> <PUBCHEM_IUPAC_NAME>
(4E)-5-(4-butoxyphenyl)-1-(6-chloro-1,3-benzothiazol-2-yl)-4-[2,3-dihydro-1,4-benzodioxin-6-yl(hydroxy)methylidene]pyrrolidine-2,3-dione

> <PUBCHEM_IUPAC_SYSTEMATIC_NAME>
(4E)-5-(4-butoxyphenyl)-1-(6-chloranyl-1,3-benzothiazol-2-yl)-4-[2,3-dihydro-1,4-benzodioxin-6-yl(oxidanyl)methylidene]pyrrolidine-2,3-dione

> <PUBCHEM_IUPAC_TRADITIONAL_NAME>
(4E)-5-(4-butoxyphenyl)-1-(6-chloro-1,3-benzothiazol-2-yl)-4-[2,3-dihydro-1,4-benzodioxin-6-yl(hydroxy)methylene]pyrrolidine-2,3-quinone

> <PUBCHEM_IUPAC_INCHI>
InChI=1S/C30H25ClN2O6S/c1-2-3-12-37-20-8-4-17(5-9-20)26-25(27(34)18-6-11-22-23(15-18)39-14-13-38-22)28(35)29(36)33(26)30-32-21-10-7-19(31)16-24(21)40-30/h4-11,15-16,26,34H,2-3,12-14H2,1H3/b27-25+

> <PUBCHEM_IUPAC_INCHIKEY>
QWNAUEZMJBUIPZ-IMVLJIQESA-N

> <PUBCHEM_XLOGP3_AA>
6.9

> <PUBCHEM_EXACT_MASS>
576.112

> <PUBCHEM_MOLECULAR_FORMULA>
C30H25ClN2O6S

> <PUBCHEM_MOLECULAR_WEIGHT>
577.048

> <PUBCHEM_OPENEYE_CAN_SMILES>
CCCCOC1=CC=C(C=C1)C2C(=C(C3=CC4=C(C=C3)OCCO4)O)C(=O)C(=O)N2C5=NC6=C(S5)C=C(C=C6)Cl

> <PUBCHEM_OPENEYE_ISO_SMILES>
CCCCOC1=CC=C(C=C1)C2/C(=C(/C3=CC4=C(C=C3)OCCO4)\O)/C(=O)C(=O)N2C5=NC6=C(S5)C=C(C=C6)Cl

> <PUBCHEM_CACTVS_TPSA>
126

> <PUBCHEM_MONOISOTOPIC_WEIGHT>
576.112

> <PUBCHEM_TOTAL_CHARGE>
0

> <PUBCHEM_HEAVY_ATOM_COUNT>
40

> <PUBCHEM_ATOM_DEF_STEREO_COUNT>
0

> <PUBCHEM_ATOM_UDEF_STEREO_COUNT>
1

> <PUBCHEM_BOND_DEF_STEREO_COUNT>
1

> <PUBCHEM_BOND_UDEF_STEREO_COUNT>
0

> <PUBCHEM_ISOTOPIC_ATOM_COUNT>
0

> <PUBCHEM_COMPONENT_COUNT>
1

> <PUBCHEM_CACTVS_TAUTO_COUNT>
3

> <PUBCHEM_COORDINATE_TYPE>
1
5
255

> <PUBCHEM_BONDANNOTATIONS>
10  17  8
10  26  8
11  13  3
13  18  8
13  19  8
18  21  8
19  22  8
2  17  8
2  25  8
20  24  8
20  27  8
21  23  8
22  23  8
24  28  8
25  26  8
25  32  8
26  33  8
27  30  8
28  29  8
29  30  8
32  38  8
33  39  8
38  39  8

$$$$
3466082
  -OEChem-11021604552D

 57 61  0     1  0  0  0  0  0999 V2000
    5.5443    2.6029    0.0000 S   0  0  0  0  0  0  0  0  0  0  0  0
    9.4758    2.8859    0.0000 O   0  0  0  0  0  0  0  0  0  0  0  0
    7.4067    3.5582    0.0000 O   0  0  0  0  0  0  0  0  0  0  0  0
   10.5972    2.0953    0.0000 O   0  0  0  0  0  0  0  0  0  0  0  0
    9.3712   -0.2842    0.0000 O   0  0  0  0  0  0  0  0  0  0  0  0
    5.1414   -1.3288    0.0000 O   0  0  0  0  0  0  0  0  0  0  0  0
    6.4796   -2.8151    0.0000 O   0  0  0  0  0  0  0  0  0  0  0  0
    7.1279    1.7982    0.0000 N   0  0  0  0  0  0  0  0  0  0  0  0
    5.5443    0.9934    0.0000 N   0  0  0  0  0  0  0  0  0  0  0  0
    7.7157    0.9891    0.0000 C   0  0  3  0  0  0  0  0  0  0  0  0
    8.6668    1.2982    0.0000 C   0  0  0  0  0  0  0  0  0  0  0  0
    7.4067    0.0381    0.0000 C   0  0  0  0  0  0  0  0  0  0  0  0
    8.6668    2.2982    0.0000 C   0  0  0  0  0  0  0  0  0  0  0  0
    7.7157    2.6072    0.0000 C   0  0  0  0  0  0  0  0  0  0  0  0
    6.1279    1.7982    0.0000 C   0  0  0  0  0  0  0  0  0  0  0  0
    9.4758    0.7104    0.0000 C   0  0  0  0  0  0  0  0  0  0  0  0
    6.4285   -0.1698    0.0000 C   0  0  0  0  0  0  0  0  0  0  0  0
    8.0758   -0.7051    0.0000 C   0  0  0  0  0  0  0  0  0  0  0  0
    6.1195   -1.1209    0.0000 C   0  0  0  0  0  0  0  0  0  0  0  0
    4.5981    2.2982    0.0000 C   0  0  0  0  0  0  0  0  0  0  0  0
    4.5981    1.2982    0.0000 C   0  0  0  0  0  0  0  0  0  0  0  0
   10.3893    1.1171    0.0000 C   0  0  0  0  0  0  0  0  0  0  0  0
    7.7668   -1.6561    0.0000 C   0  0  0  0  0  0  0  0  0  0  0  0
    6.7886   -1.8640    0.0000 C   0  0  0  0  0  0  0  0  0  0  0  0
    3.7320    2.7982    0.0000 C   0  0  0  0  0  0  0  0  0  0  0  0
    3.7320    0.7982    0.0000 C   0  0  0  0  0  0  0  0  0  0  0  0
   11.2553    0.6171    0.0000 C   0  0  0  0  0  0  0  0  0  0  0  0
    2.8660    2.2982    0.0000 C   0  0  0  0  0  0  0  0  0  0  0  0
    2.8660    1.2982    0.0000 C   0  0  0  0  0  0  0  0  0  0  0  0
   11.5917    2.1998    0.0000 C   0  0  0  0  0  0  0  0  0  0  0  0
   11.9985    1.2862    0.0000 C   0  0  0  0  0  0  0  0  0  0  0  0
    2.0000    2.7982    0.0000 C   0  0  0  0  0  0  0  0  0  0  0  0
   12.0917    3.0658    0.0000 C   0  0  0  0  0  0  0  0  0  0  0  0
    4.8323   -2.2798    0.0000 C   0  0  0  0  0  0  0  0  0  0  0  0
    7.1488   -3.5582    0.0000 C   0  0  0  0  0  0  0  0  0  0  0  0
    6.8762    0.8562    0.0000 H   0  0  0  0  0  0  0  0  0  0  0  0
    6.0137    0.2909    0.0000 H   0  0  0  0  0  0  0  0  0  0  0  0
    8.6822   -0.5762    0.0000 H   0  0  0  0  0  0  0  0  0  0  0  0
    8.1816   -2.1169    0.0000 H   0  0  0  0  0  0  0  0  0  0  0  0
    9.4110    3.5026    0.0000 H   0  0  0  0  0  0  0  0  0  0  0  0
    3.7320    3.4182    0.0000 H   0  0  0  0  0  0  0  0  0  0  0  0
    3.7320    0.1782    0.0000 H   0  0  0  0  0  0  0  0  0  0  0  0
   11.3201    0.0005    0.0000 H   0  0  0  0  0  0  0  0  0  0  0  0
    2.3291    0.9882    0.0000 H   0  0  0  0  0  0  0  0  0  0  0  0
   12.6049    1.1573    0.0000 H   0  0  0  0  0  0  0  0  0  0  0  0
    2.3100    3.3351    0.0000 H   0  0  0  0  0  0  0  0  0  0  0  0
    1.4631    3.1082    0.0000 H   0  0  0  0  0  0  0  0  0  0  0  0
    1.6900    2.2612    0.0000 H   0  0  0  0  0  0  0  0  0  0  0  0
   12.6287    2.7558    0.0000 H   0  0  0  0  0  0  0  0  0  0  0  0
   12.4017    3.6028    0.0000 H   0  0  0  0  0  0  0  0  0  0  0  0
   11.5548    3.3758    0.0000 H   0  0  0  0  0  0  0  0  0  0  0  0
    4.2427   -2.0883    0.0000 H   0  0  0  0  0  0  0  0  0  0  0  0
    4.6408   -2.8695    0.0000 H   0  0  0  0  0  0  0  0  0  0  0  0
    5.4220   -2.4714    0.0000 H   0  0  0  0  0  0  0  0  0  0  0  0
    6.6880   -3.9731    0.0000 H   0  0  0  0  0  0  0  0  0  0  0  0
    7.5636   -4.0190    0.0000 H   0  0  0  0  0  0  0  0  0  0  0  0
    7.6095   -3.1434    0.0000 H   0  0  0  0  0  0  0  0  0  0  0  0
  1 15  1  0  0  0  0
  1 20  1  0  0  0  0
  2 13  1  0  0  0  0
  2 40  1  0  0  0  0
  3 14  2  0  0  0  0
  4 22  1  0  0  0  0
  4 30  1  0  0  0  0
  5 16  2  0  0  0  0
  6 19  1  0  0  0  0
  6 34  1  0  0  0  0
  7 24  1  0  0  0  0
  7 35  1  0  0  0  0
  8 10  1  0  0  0  0
  8 14  1  0  0  0  0
  8 15  1  0  0  0  0
  9 15  2  0  0  0  0
  9 21  1  0  0  0  0
 10 11  1  0  0  0  0
 10 12  1  0  0  0  0
 10 36  1  0  0  0  0
 11 13  2  0  0  0  0
 11 16  1  0  0  0  0
 12 17  2  0  0  0  0
 12 18  1  0  0  0  0
 13 14  1  0  0  0  0
 16 22  1  0  0  0  0
 17 19  1  0  0  0  0
 17 37  1  0  0  0  0
 18 23  2  0  0  0  0
 18 38  1  0  0  0  0
 19 24  2  0  0  0  0
 20 21  2  0  0  0  0
 20 25  1  0  0  0  0
 21 26  1  0  0  0  0
 22 27  2  0  0  0  0
 23 24  1  0  0  0  0
 23 39  1  0  0  0  0
 25 28  2  0  0  0  0
 25 41  1  0  0  0  0
 26 29  2  0  0  0  0
 26 42  1  0  0  0  0
 27 31  1  0  0  0  0
 27 43  1  0  0  0  0
 28 29  1  0  0  0  0
 28 32  1  0  0  0  0
 29 44  1  0  0  0  0
 30 31  2  0  0  0  0
 30 33  1  0  0  0  0
 31 45  1  0  0  0  0
 32 46  1  0  0  0  0
 32 47  1  0  0  0  0
 32 48  1  0  0  0  0
 33 49  1  0  0  0  0
 33 50  1  0  0  0  0
 33 51  1  0  0  0  0
 34 52  1  0  0  0  0
 34 53  1  0  0  0  0
 34 54  1  0  0  0  0
 35 55  1  0  0  0  0
 35 56  1  0  0  0  0
 35 57  1  0  0  0  0
M  END
> <PUBCHEM_COMPOUND_CID>
3466082

> <PUBCHEM_COMPOUND_CANONICALIZED>
1

> <PUBCHEM_CACTVS_COMPLEXITY>
867

> <PUBCHEM_CACTVS_HBOND_ACCEPTOR>
8

> <PUBCHEM_CACTVS_HBOND_DONOR>
1

> <PUBCHEM_CACTVS_ROTATABLE_BOND>
6

> <PUBCHEM_CACTVS_SUBSKEYS>
AAADceB7OABAAAAAAAAAAAAAAAAAAWJEAAAwYAAAAAAAAFgB/AAAHgQACAAADCzB3gYz17MIFkisA6VydAKD+KllKjhJmD1+7NiPJrrkvZ+GOSrsxxPa6ae83vPuKAABgAAAQQBQAAMAAACCAAAAAAAAAA==

> <PUBCHEM_IUPAC_OPENEYE_NAME>
2-(3,4-dimethoxyphenyl)-4-hydroxy-1-(6-methyl-1,3-benzothiazol-2-yl)-3-(5-methylfuran-2-carbonyl)-2H-pyrrol-5-one

> <PUBCHEM_IUPAC_CAS_NAME>
2-(3,4-dimethoxyphenyl)-4-hydroxy-1-(6-methyl-1,3-benzothiazol-2-yl)-3-[(5-methyl-2-furanyl)-oxomethyl]-2H-pyrrol-5-one

> <PUBCHEM_IUPAC_NAME>
2-(3,4-dimethoxyphenyl)-4-hydroxy-1-(6-methyl-1,3-benzothiazol-2-yl)-3-(5-methylfuran-2-carbonyl)-2H-pyrrol-5-one

> <PUBCHEM_IUPAC_SYSTEMATIC_NAME>
2-(3,4-dimethoxyphenyl)-1-(6-methyl-1,3-benzothiazol-2-yl)-3-(5-methylfuran-2-yl)carbonyl-4-oxidanyl-2H-pyrrol-5-one

> <PUBCHEM_IUPAC_TRADITIONAL_NAME>
5-(3,4-dimethoxyphenyl)-3-hydroxy-1-(6-methyl-1,3-benzothiazol-2-yl)-4-(5-methyl-2-furoyl)-3-pyrrolin-2-one

> <PUBCHEM_IUPAC_INCHI>
InChI=1S/C26H22N2O6S/c1-13-5-8-16-20(11-13)35-26(27-16)28-22(15-7-10-17(32-3)19(12-15)33-4)21(24(30)25(28)31)23(29)18-9-6-14(2)34-18/h5-12,22,30H,1-4H3

> <PUBCHEM_IUPAC_INCHIKEY>
WSHNDEMDKDTFTJ-UHFFFAOYSA-N

> <PUBCHEM_XLOGP3_AA>
5.4

> <PUBCHEM_EXACT_MASS>
490.12

> <PUBCHEM_MOLECULAR_FORMULA>
C26H22N2O6S

> <PUBCHEM_MOLECULAR_WEIGHT>
490.53

> <PUBCHEM_OPENEYE_CAN_SMILES>
CC1=CC2=C(C=C1)N=C(S2)N3C(C(=C(C3=O)O)C(=O)C4=CC=C(O4)C)C5=CC(=C(C=C5)OC)OC

> <PUBCHEM_OPENEYE_ISO_SMILES>
CC1=CC2=C(C=C1)N=C(S2)N3C(C(=C(C3=O)O)C(=O)C4=CC=C(O4)C)C5=CC(=C(C=C5)OC)OC

> <PUBCHEM_CACTVS_TPSA>
130

> <PUBCHEM_MONOISOTOPIC_WEIGHT>
490.12

> <PUBCHEM_TOTAL_CHARGE>
0

> <PUBCHEM_HEAVY_ATOM_COUNT>
35

> <PUBCHEM_ATOM_DEF_STEREO_COUNT>
0

> <PUBCHEM_ATOM_UDEF_STEREO_COUNT>
1

> <PUBCHEM_BOND_DEF_STEREO_COUNT>
0

> <PUBCHEM_BOND_UDEF_STEREO_COUNT>
0

> <PUBCHEM_ISOTOPIC_ATOM_COUNT>
0

> <PUBCHEM_COMPONENT_COUNT>
1

> <PUBCHEM_CACTVS_TAUTO_COUNT>
11

> <PUBCHEM_COORDINATE_TYPE>
1
5
255

> <PUBCHEM_BONDANNOTATIONS>
1  15  8
1  20  8
10  36  3
12  17  8
12  18  8
17  19  8
18  23  8
19  24  8
20  21  8
20  25  8
21  26  8
22  27  8
23  24  8
25  28  8
26  29  8
27  31  8
28  29  8
30  31  8
4  22  8
4  30  8
9  15  8
9  21  8

$$$$
118729151
  -OEChem-11021604552D

 50 54  0     1  0  0  0  0  0999 V2000
    5.5443    2.5470    0.0000 S   0  0  0  0  0  0  0  0  0  0  0  0
    4.5038   -0.3644    0.0000 F   0  0  0  0  0  0  0  0  0  0  0  0
    2.0000    2.7423    0.0000 F   0  0  0  0  0  0  0  0  0  0  0  0
    7.4067    3.5023    0.0000 O   0  0  0  0  0  0  0  0  0  0  0  0
    9.4758    2.8300    0.0000 O   0  0  0  0  0  0  0  0  0  0  0  0
   10.3893    1.0612    0.0000 O   0  0  0  0  0  0  0  0  0  0  0  0
   10.4435   -3.2267    0.0000 O   0  0  0  0  0  0  0  0  0  0  0  0
    7.1279    1.7423    0.0000 N   0  0  0  0  0  0  0  0  0  0  0  0
    5.5443    0.9375    0.0000 N   0  0  0  0  0  0  0  0  0  0  0  0
    7.7157    0.9332    0.0000 C   0  0  3  0  0  0  0  0  0  0  0  0
    8.6668    1.2423    0.0000 C   0  0  0  0  0  0  0  0  0  0  0  0
    7.1001    0.1452    0.0000 C   0  0  0  0  0  0  0  0  0  0  0  0
    7.7157    2.5513    0.0000 C   0  0  0  0  0  0  0  0  0  0  0  0
    8.6668    2.2423    0.0000 C   0  0  0  0  0  0  0  0  0  0  0  0
    6.1279    1.7423    0.0000 C   0  0  0  0  0  0  0  0  0  0  0  0
    9.4758    0.6545    0.0000 C   0  0  0  0  0  0  0  0  0  0  0  0
    6.1098    0.2844    0.0000 C   0  0  0  0  0  0  0  0  0  0  0  0
    7.4746   -0.7819    0.0000 C   0  0  0  0  0  0  0  0  0  0  0  0
    9.7178   -0.3158    0.0000 C   0  0  0  0  0  0  0  0  0  0  0  0
    4.5981    2.2423    0.0000 C   0  0  0  0  0  0  0  0  0  0  0  0
    4.5981    1.2423    0.0000 C   0  0  0  0  0  0  0  0  0  0  0  0
    5.4941   -0.5036    0.0000 C   0  0  0  0  0  0  0  0  0  0  0  0
    6.8590   -1.5700    0.0000 C   0  0  0  0  0  0  0  0  0  0  0  0
    5.8688   -1.4308    0.0000 C   0  0  0  0  0  0  0  0  0  0  0  0
   10.6789   -0.5915    0.0000 C   0  0  0  0  0  0  0  0  0  0  0  0
    8.9984   -1.0105    0.0000 C   0  0  0  0  0  0  0  0  0  0  0  0
    3.7320    2.7423    0.0000 C   0  0  0  0  0  0  0  0  0  0  0  0
    3.7320    0.7423    0.0000 C   0  0  0  0  0  0  0  0  0  0  0  0
   10.9209   -1.5618    0.0000 C   0  0  0  0  0  0  0  0  0  0  0  0
    9.2403   -1.9808    0.0000 C   0  0  0  0  0  0  0  0  0  0  0  0
    2.8660    2.2423    0.0000 C   0  0  0  0  0  0  0  0  0  0  0  0
    2.8660    1.2423    0.0000 C   0  0  0  0  0  0  0  0  0  0  0  0
   10.2016   -2.2564    0.0000 C   0  0  0  0  0  0  0  0  0  0  0  0
   11.4047   -3.5023    0.0000 C   0  0  0  0  0  0  0  0  0  0  0  0
    8.0713    0.4254    0.0000 H   0  0  0  0  0  0  0  0  0  0  0  0
    5.8775    0.8593    0.0000 H   0  0  0  0  0  0  0  0  0  0  0  0
    8.0886   -0.8682    0.0000 H   0  0  0  0  0  0  0  0  0  0  0  0
    7.0912   -2.1448    0.0000 H   0  0  0  0  0  0  0  0  0  0  0  0
    5.4871   -1.9194    0.0000 H   0  0  0  0  0  0  0  0  0  0  0  0
   11.1249   -0.1608    0.0000 H   0  0  0  0  0  0  0  0  0  0  0  0
    8.4024   -0.8396    0.0000 H   0  0  0  0  0  0  0  0  0  0  0  0
   10.8909    0.6968    0.0000 H   0  0  0  0  0  0  0  0  0  0  0  0
    3.7320    3.3623    0.0000 H   0  0  0  0  0  0  0  0  0  0  0  0
    3.7320    0.1223    0.0000 H   0  0  0  0  0  0  0  0  0  0  0  0
   11.5169   -1.7326    0.0000 H   0  0  0  0  0  0  0  0  0  0  0  0
    8.7943   -2.4115    0.0000 H   0  0  0  0  0  0  0  0  0  0  0  0
    2.3291    0.9323    0.0000 H   0  0  0  0  0  0  0  0  0  0  0  0
   11.2338   -4.0983    0.0000 H   0  0  0  0  0  0  0  0  0  0  0  0
   12.0007   -3.6733    0.0000 H   0  0  0  0  0  0  0  0  0  0  0  0
   11.5756   -2.9064    0.0000 H   0  0  0  0  0  0  0  0  0  0  0  0
  1 15  1  0  0  0  0
  1 20  1  0  0  0  0
  2 22  1  0  0  0  0
  3 31  1  0  0  0  0
  4 13  2  0  0  0  0
  5 14  2  0  0  0  0
  6 16  1  0  0  0  0
  6 42  1  0  0  0  0
  7 33  1  0  0  0  0
  7 34  1  0  0  0  0
  8 10  1  0  0  0  0
  8 13  1  0  0  0  0
  8 15  1  0  0  0  0
  9 15  2  0  0  0  0
  9 21  1  0  0  0  0
 10 11  1  0  0  0  0
 10 12  1  0  0  0  0
 10 35  1  0  0  0  0
 11 14  1  0  0  0  0
 11 16  2  0  0  0  0
 12 17  2  0  0  0  0
 12 18  1  0  0  0  0
 13 14  1  0  0  0  0
 16 19  1  0  0  0  0
 17 22  1  0  0  0  0
 17 36  1  0  0  0  0
 18 23  2  0  0  0  0
 18 37  1  0  0  0  0
 19 25  2  0  0  0  0
 19 26  1  0  0  0  0
 20 21  2  0  0  0  0
 20 27  1  0  0  0  0
 21 28  1  0  0  0  0
 22 24  2  0  0  0  0
 23 24  1  0  0  0  0
 23 38  1  0  0  0  0
 24 39  1  0  0  0  0
 25 29  1  0  0  0  0
 25 40  1  0  0  0  0
 26 30  2  0  0  0  0
 26 41  1  0  0  0  0
 27 31  2  0  0  0  0
 27 43  1  0  0  0  0
 28 32  2  0  0  0  0
 28 44  1  0  0  0  0
 29 33  2  0  0  0  0
 29 45  1  0  0  0  0
 30 33  1  0  0  0  0
 30 46  1  0  0  0  0
 31 32  1  0  0  0  0
 32 47  1  0  0  0  0
 34 48  1  0  0  0  0
 34 49  1  0  0  0  0
 34 50  1  0  0  0  0
M  END
> <PUBCHEM_COMPOUND_CID>
118729151

> <PUBCHEM_COMPOUND_CANONICALIZED>
1

> <PUBCHEM_CACTVS_COMPLEXITY>
834

> <PUBCHEM_CACTVS_HBOND_ACCEPTOR>
8

> <PUBCHEM_CACTVS_HBOND_DONOR>
1

> <PUBCHEM_CACTVS_ROTATABLE_BOND>
4

> <PUBCHEM_CACTVS_SUBSKEYS>
AAADceB7OYBAAAAAAAAAAAAAAAAAAWLAAAAwYMAAAAAAAFgB9AAAHwQACAAADCzB3g4z17MIFgisA6VydACD+KlhKjhJmD2+bNiMJrrkubuEcChsxxPI+Sec6KyOIAAAAAAAAQBAAAAAAAACAAAAAAAAAA==

> <PUBCHEM_IUPAC_OPENEYE_NAME>
(4Z)-1-(6-fluoro-1,3-benzothiazol-2-yl)-5-(3-fluorophenyl)-4-[hydroxy-(4-methoxyphenyl)methylene]pyrrolidine-2,3-dione

> <PUBCHEM_IUPAC_CAS_NAME>
(4Z)-1-(6-fluoro-1,3-benzothiazol-2-yl)-5-(3-fluorophenyl)-4-[hydroxy-(4-methoxyphenyl)methylidene]pyrrolidine-2,3-dione

> <PUBCHEM_IUPAC_NAME>
(4Z)-1-(6-fluoro-1,3-benzothiazol-2-yl)-5-(3-fluorophenyl)-4-[hydroxy-(4-methoxyphenyl)methylidene]pyrrolidine-2,3-dione

> <PUBCHEM_IUPAC_SYSTEMATIC_NAME>
(4Z)-1-(6-fluoranyl-1,3-benzothiazol-2-yl)-5-(3-fluorophenyl)-4-[(4-methoxyphenyl)-oxidanyl-methylidene]pyrrolidine-2,3-dione

> <PUBCHEM_IUPAC_TRADITIONAL_NAME>
(4Z)-1-(6-fluoro-1,3-benzothiazol-2-yl)-5-(3-fluorophenyl)-4-[hydroxy-(4-methoxyphenyl)methylene]pyrrolidine-2,3-quinone

> <PUBCHEM_IUPAC_INCHI>
InChI=1S/C25H16F2N2O4S/c1-33-17-8-5-13(6-9-17)22(30)20-21(14-3-2-4-15(26)11-14)29(24(32)23(20)31)25-28-18-10-7-16(27)12-19(18)34-25/h2-12,21,30H,1H3/b22-20-

> <PUBCHEM_IUPAC_INCHIKEY>
KTVYRJJXQGRJQE-XDOYNYLZSA-N

> <PUBCHEM_XLOGP3_AA>
5.5

> <PUBCHEM_EXACT_MASS>
478.08

> <PUBCHEM_MOLECULAR_FORMULA>
C25H16F2N2O4S

> <PUBCHEM_MOLECULAR_WEIGHT>
478.47

> <PUBCHEM_OPENEYE_CAN_SMILES>
COC1=CC=C(C=C1)C(=C2C(N(C(=O)C2=O)C3=NC4=C(S3)C=C(C=C4)F)C5=CC(=CC=C5)F)O

> <PUBCHEM_OPENEYE_ISO_SMILES>
COC1=CC=C(C=C1)/C(=C/2\C(N(C(=O)C2=O)C3=NC4=C(S3)C=C(C=C4)F)C5=CC(=CC=C5)F)/O

> <PUBCHEM_CACTVS_TPSA>
108

> <PUBCHEM_MONOISOTOPIC_WEIGHT>
478.08

> <PUBCHEM_TOTAL_CHARGE>
0

> <PUBCHEM_HEAVY_ATOM_COUNT>
34

> <PUBCHEM_ATOM_DEF_STEREO_COUNT>
0

> <PUBCHEM_ATOM_UDEF_STEREO_COUNT>
1

> <PUBCHEM_BOND_DEF_STEREO_COUNT>
1

> <PUBCHEM_BOND_UDEF_STEREO_COUNT>
0

> <PUBCHEM_ISOTOPIC_ATOM_COUNT>
0

> <PUBCHEM_COMPONENT_COUNT>
1

> <PUBCHEM_CACTVS_TAUTO_COUNT>
3

> <PUBCHEM_COORDINATE_TYPE>
1
5
255

> <PUBCHEM_BONDANNOTATIONS>
1  15  8
1  20  8
10  12  3
12  17  8
12  18  8
17  22  8
18  23  8
19  25  8
19  26  8
20  21  8
20  27  8
21  28  8
22  24  8
23  24  8
25  29  8
26  30  8
27  31  8
28  32  8
29  33  8
30  33  8
31  32  8
9  15  8
9  21  8

$$$$
118729148
  -OEChem-11021604552D

 49 53  0     1  0  0  0  0  0999 V2000
    5.2531   -2.3567    0.0000 Cl  0  0  0  0  0  0  0  0  0  0  0  0
    5.5443    2.4092    0.0000 S   0  0  0  0  0  0  0  0  0  0  0  0
   10.4435   -3.3645    0.0000 F   0  0  0  0  0  0  0  0  0  0  0  0
    7.4067    3.3645    0.0000 O   0  0  0  0  0  0  0  0  0  0  0  0
    9.4758    2.6922    0.0000 O   0  0  0  0  0  0  0  0  0  0  0  0
   10.3893    0.9234    0.0000 O   0  0  0  0  0  0  0  0  0  0  0  0
    7.1279    1.6044    0.0000 N   0  0  0  0  0  0  0  0  0  0  0  0
    5.5443    0.7997    0.0000 N   0  0  0  0  0  0  0  0  0  0  0  0
    7.7157    0.7954    0.0000 C   0  0  3  0  0  0  0  0  0  0  0  0
    8.6668    1.1044    0.0000 C   0  0  0  0  0  0  0  0  0  0  0  0
    7.1001    0.0074    0.0000 C   0  0  0  0  0  0  0  0  0  0  0  0
    7.7157    2.4134    0.0000 C   0  0  0  0  0  0  0  0  0  0  0  0
    8.6668    2.1044    0.0000 C   0  0  0  0  0  0  0  0  0  0  0  0
    6.1279    1.6044    0.0000 C   0  0  0  0  0  0  0  0  0  0  0  0
    9.4758    0.5167    0.0000 C   0  0  0  0  0  0  0  0  0  0  0  0
    7.4746   -0.9198    0.0000 C   0  0  0  0  0  0  0  0  0  0  0  0
    6.1098    0.1466    0.0000 C   0  0  0  0  0  0  0  0  0  0  0  0
    4.5981    2.1044    0.0000 C   0  0  0  0  0  0  0  0  0  0  0  0
    9.7178   -0.4536    0.0000 C   0  0  0  0  0  0  0  0  0  0  0  0
    4.5981    1.1044    0.0000 C   0  0  0  0  0  0  0  0  0  0  0  0
    6.8590   -1.7078    0.0000 C   0  0  0  0  0  0  0  0  0  0  0  0
    5.4941   -0.6414    0.0000 C   0  0  0  0  0  0  0  0  0  0  0  0
    3.7320    2.6044    0.0000 C   0  0  0  0  0  0  0  0  0  0  0  0
    5.8688   -1.5687    0.0000 C   0  0  0  0  0  0  0  0  0  0  0  0
    3.7320    0.6044    0.0000 C   0  0  0  0  0  0  0  0  0  0  0  0
    2.8660    2.1044    0.0000 C   0  0  0  0  0  0  0  0  0  0  0  0
   10.6789   -0.7293    0.0000 C   0  0  0  0  0  0  0  0  0  0  0  0
    8.9984   -1.1483    0.0000 C   0  0  0  0  0  0  0  0  0  0  0  0
    2.8660    1.1044    0.0000 C   0  0  0  0  0  0  0  0  0  0  0  0
   10.9209   -1.6996    0.0000 C   0  0  0  0  0  0  0  0  0  0  0  0
    9.2403   -2.1186    0.0000 C   0  0  0  0  0  0  0  0  0  0  0  0
    2.0000    2.6044    0.0000 C   0  0  0  0  0  0  0  0  0  0  0  0
   10.2016   -2.3942    0.0000 C   0  0  0  0  0  0  0  0  0  0  0  0
    8.0713    0.2876    0.0000 H   0  0  0  0  0  0  0  0  0  0  0  0
    8.0886   -1.0061    0.0000 H   0  0  0  0  0  0  0  0  0  0  0  0
    5.8775    0.7214    0.0000 H   0  0  0  0  0  0  0  0  0  0  0  0
    7.0912   -2.2826    0.0000 H   0  0  0  0  0  0  0  0  0  0  0  0
    4.8801   -0.5552    0.0000 H   0  0  0  0  0  0  0  0  0  0  0  0
    3.7320    3.2244    0.0000 H   0  0  0  0  0  0  0  0  0  0  0  0
    3.7320   -0.0156    0.0000 H   0  0  0  0  0  0  0  0  0  0  0  0
   11.1249   -0.2986    0.0000 H   0  0  0  0  0  0  0  0  0  0  0  0
    8.4024   -0.9774    0.0000 H   0  0  0  0  0  0  0  0  0  0  0  0
   10.8909    0.5590    0.0000 H   0  0  0  0  0  0  0  0  0  0  0  0
    2.3291    0.7944    0.0000 H   0  0  0  0  0  0  0  0  0  0  0  0
   11.5169   -1.8705    0.0000 H   0  0  0  0  0  0  0  0  0  0  0  0
    8.7943   -2.5493    0.0000 H   0  0  0  0  0  0  0  0  0  0  0  0
    2.3100    3.1414    0.0000 H   0  0  0  0  0  0  0  0  0  0  0  0
    1.4631    2.9144    0.0000 H   0  0  0  0  0  0  0  0  0  0  0  0
    1.6900    2.0675    0.0000 H   0  0  0  0  0  0  0  0  0  0  0  0
  1 24  1  0  0  0  0
  2 14  1  0  0  0  0
  2 18  1  0  0  0  0
  3 33  1  0  0  0  0
  4 12  2  0  0  0  0
  5 13  2  0  0  0  0
  6 15  1  0  0  0  0
  6 43  1  0  0  0  0
  7  9  1  0  0  0  0
  7 12  1  0  0  0  0
  7 14  1  0  0  0  0
  8 14  2  0  0  0  0
  8 20  1  0  0  0  0
  9 10  1  0  0  0  0
  9 11  1  0  0  0  0
  9 34  1  0  0  0  0
 10 13  1  0  0  0  0
 10 15  2  0  0  0  0
 11 16  2  0  0  0  0
 11 17  1  0  0  0  0
 12 13  1  0  0  0  0
 15 19  1  0  0  0  0
 16 21  1  0  0  0  0
 16 35  1  0  0  0  0
 17 22  2  0  0  0  0
 17 36  1  0  0  0  0
 18 20  2  0  0  0  0
 18 23  1  0  0  0  0
 19 27  2  0  0  0  0
 19 28  1  0  0  0  0
 20 25  1  0  0  0  0
 21 24  2  0  0  0  0
 21 37  1  0  0  0  0
 22 24  1  0  0  0  0
 22 38  1  0  0  0  0
 23 26  2  0  0  0  0
 23 39  1  0  0  0  0
 25 29  2  0  0  0  0
 25 40  1  0  0  0  0
 26 29  1  0  0  0  0
 26 32  1  0  0  0  0
 27 30  1  0  0  0  0
 27 41  1  0  0  0  0
 28 31  2  0  0  0  0
 28 42  1  0  0  0  0
 29 44  1  0  0  0  0
 30 33  2  0  0  0  0
 30 45  1  0  0  0  0
 31 33  1  0  0  0  0
 31 46  1  0  0  0  0
 32 47  1  0  0  0  0
 32 48  1  0  0  0  0
 32 49  1  0  0  0  0
M  END
> <PUBCHEM_COMPOUND_CID>
118729148

> <PUBCHEM_COMPOUND_CANONICALIZED>
1

> <PUBCHEM_CACTVS_COMPLEXITY>
810

> <PUBCHEM_CACTVS_HBOND_ACCEPTOR>
6

> <PUBCHEM_CACTVS_HBOND_DONOR>
1

> <PUBCHEM_CACTVS_ROTATABLE_BOND>
3

> <PUBCHEM_CACTVS_SUBSKEYS>
AAADceB7MQBEAAAAAAAAAAAAAAAAAWLAAAAwYMAAAAAAAFgB9AAAHwYACAAADC7B3iwz0bMIEgisA6VydACD8KlhLzhJmD24btiIJrrhm7GEcAhsxwPI2SecyKCODAAAgAAAAQAYAAEAAAACAAAAAAAAAA==

> <PUBCHEM_IUPAC_OPENEYE_NAME>
(4Z)-5-(4-chlorophenyl)-4-[(4-fluorophenyl)-hydroxy-methylene]-1-(6-methyl-1,3-benzothiazol-2-yl)pyrrolidine-2,3-dione

> <PUBCHEM_IUPAC_CAS_NAME>
(4Z)-5-(4-chlorophenyl)-4-[(4-fluorophenyl)-hydroxymethylidene]-1-(6-methyl-1,3-benzothiazol-2-yl)pyrrolidine-2,3-dione

> <PUBCHEM_IUPAC_NAME>
(4Z)-5-(4-chlorophenyl)-4-[(4-fluorophenyl)-hydroxymethylidene]-1-(6-methyl-1,3-benzothiazol-2-yl)pyrrolidine-2,3-dione

> <PUBCHEM_IUPAC_SYSTEMATIC_NAME>
(4Z)-5-(4-chlorophenyl)-4-[(4-fluorophenyl)-oxidanyl-methylidene]-1-(6-methyl-1,3-benzothiazol-2-yl)pyrrolidine-2,3-dione

> <PUBCHEM_IUPAC_TRADITIONAL_NAME>
(4Z)-5-(4-chlorophenyl)-4-[(4-fluorophenyl)-hydroxy-methylene]-1-(6-methyl-1,3-benzothiazol-2-yl)pyrrolidine-2,3-quinone

> <PUBCHEM_IUPAC_INCHI>
InChI=1S/C25H16ClFN2O3S/c1-13-2-11-18-19(12-13)33-25(28-18)29-21(14-3-7-16(26)8-4-14)20(23(31)24(29)32)22(30)15-5-9-17(27)10-6-15/h2-12,21,30H,1H3/b22-20-

> <PUBCHEM_IUPAC_INCHIKEY>
XOBWDRUXCCBFEW-XDOYNYLZSA-N

> <PUBCHEM_XLOGP3_AA>
6.4

> <PUBCHEM_EXACT_MASS>
478.055

> <PUBCHEM_MOLECULAR_FORMULA>
C25H16ClFN2O3S

> <PUBCHEM_MOLECULAR_WEIGHT>
478.922

> <PUBCHEM_OPENEYE_CAN_SMILES>
CC1=CC2=C(C=C1)N=C(S2)N3C(C(=C(C4=CC=C(C=C4)F)O)C(=O)C3=O)C5=CC=C(C=C5)Cl

> <PUBCHEM_OPENEYE_ISO_SMILES>
CC1=CC2=C(C=C1)N=C(S2)N3C(/C(=C(\C4=CC=C(C=C4)F)/O)/C(=O)C3=O)C5=CC=C(C=C5)Cl

> <PUBCHEM_CACTVS_TPSA>
98.7

> <PUBCHEM_MONOISOTOPIC_WEIGHT>
478.055

> <PUBCHEM_TOTAL_CHARGE>
0

> <PUBCHEM_HEAVY_ATOM_COUNT>
33

> <PUBCHEM_ATOM_DEF_STEREO_COUNT>
0

> <PUBCHEM_ATOM_UDEF_STEREO_COUNT>
1

> <PUBCHEM_BOND_DEF_STEREO_COUNT>
1

> <PUBCHEM_BOND_UDEF_STEREO_COUNT>
0

> <PUBCHEM_ISOTOPIC_ATOM_COUNT>
0

> <PUBCHEM_COMPONENT_COUNT>
1

> <PUBCHEM_CACTVS_TAUTO_COUNT>
9

> <PUBCHEM_COORDINATE_TYPE>
1
5
255

> <PUBCHEM_BONDANNOTATIONS>
11  16  8
11  17  8
16  21  8
17  22  8
18  20  8
18  23  8
19  27  8
19  28  8
2  14  8
2  18  8
20  25  8
21  24  8
22  24  8
23  26  8
25  29  8
26  29  8
27  30  8
28  31  8
30  33  8
31  33  8
8  14  8
8  20  8
9  11  3

$$$$
16446617
  -OEChem-11021604552D

 70 75  0     1  0  0  0  0  0999 V2000
    5.7041    2.8738    0.0000 S   0  0  0  0  0  0  0  0  0  0  0  0
    2.1598    3.0691    0.0000 F   0  0  0  0  0  0  0  0  0  0  0  0
   10.1214   -2.9663    0.0000 O   0  0  0  0  0  0  0  0  0  0  0  0
   10.5491    1.3880    0.0000 O   0  0  0  0  0  0  0  0  0  0  0  0
    4.9377   -0.5756    0.0000 O   0  0  0  0  0  0  0  0  0  0  0  0
    9.6355    3.1568    0.0000 O   0  0  0  0  0  0  0  0  0  0  0  0
    7.5664    3.8291    0.0000 O   0  0  0  0  0  0  0  0  0  0  0  0
    7.2877    2.0691    0.0000 N   0  0  0  0  0  0  0  0  0  0  0  0
    5.7041    1.2643    0.0000 N   0  0  0  0  0  0  0  0  0  0  0  0
    7.8754    1.2600    0.0000 C   0  0  3  0  0  0  0  0  0  0  0  0
    8.8265    1.5691    0.0000 C   0  0  0  0  0  0  0  0  0  0  0  0
   11.4556   -2.0663    0.0000 C   0  0  0  0  0  0  0  0  0  0  0  0
   11.1148   -3.0001    0.0000 C   0  0  3  0  0  0  0  0  0  0  0  0
    7.4060    0.3771    0.0000 C   0  0  0  0  0  0  0  0  0  0  0  0
   10.6738   -1.4522    0.0000 C   0  0  0  0  0  0  0  0  0  0  0  0
    9.6355    0.9813    0.0000 C   0  0  0  0  0  0  0  0  0  0  0  0
    9.7054   -0.0163    0.0000 C   0  0  0  0  0  0  0  0  0  0  0  0
    8.8265    2.5691    0.0000 C   0  0  0  0  0  0  0  0  0  0  0  0
    9.8449   -2.0114    0.0000 C   0  0  0  0  0  0  0  0  0  0  0  0
    7.8754    2.8781    0.0000 C   0  0  0  0  0  0  0  0  0  0  0  0
   10.6041   -0.4547    0.0000 C   0  0  0  0  0  0  0  0  0  0  0  0
    6.2877    2.0691    0.0000 C   0  0  0  0  0  0  0  0  0  0  0  0
    6.4066    0.3422    0.0000 C   0  0  0  0  0  0  0  0  0  0  0  0
    8.8763   -0.5755    0.0000 C   0  0  0  0  0  0  0  0  0  0  0  0
    8.9460   -1.5730    0.0000 C   0  0  0  0  0  0  0  0  0  0  0  0
   11.6740   -3.8291    0.0000 C   0  0  0  0  0  0  0  0  0  0  0  0
    7.9359   -0.4709    0.0000 C   0  0  0  0  0  0  0  0  0  0  0  0
    5.9371   -0.5408    0.0000 C   0  0  0  0  0  0  0  0  0  0  0  0
    2.9994   -2.3764    0.0000 C   0  0  0  0  0  0  0  0  0  0  0  0
    3.4689   -1.4935    0.0000 C   0  0  0  0  0  0  0  0  0  0  0  0
    7.4664   -1.3539    0.0000 C   0  0  0  0  0  0  0  0  0  0  0  0
    4.4683   -1.4586    0.0000 C   0  0  0  0  0  0  0  0  0  0  0  0
    6.4671   -1.3888    0.0000 C   0  0  0  0  0  0  0  0  0  0  0  0
    4.7578    2.5691    0.0000 C   0  0  0  0  0  0  0  0  0  0  0  0
    4.7578    1.5691    0.0000 C   0  0  0  0  0  0  0  0  0  0  0  0
    2.0000   -2.4113    0.0000 C   0  0  0  0  0  0  0  0  0  0  0  0
    3.5293   -3.2245    0.0000 C   0  0  0  0  0  0  0  0  0  0  0  0
    3.8918    3.0691    0.0000 C   0  0  0  0  0  0  0  0  0  0  0  0
    3.8918    1.0691    0.0000 C   0  0  0  0  0  0  0  0  0  0  0  0
    3.0258    2.5691    0.0000 C   0  0  0  0  0  0  0  0  0  0  0  0
    3.0258    1.5691    0.0000 C   0  0  0  0  0  0  0  0  0  0  0  0
    8.2740    0.7851    0.0000 H   0  0  0  0  0  0  0  0  0  0  0  0
   12.0124   -2.3389    0.0000 H   0  0  0  0  0  0  0  0  0  0  0  0
   11.7852   -1.5411    0.0000 H   0  0  0  0  0  0  0  0  0  0  0  0
   10.8144   -3.5425    0.0000 H   0  0  0  0  0  0  0  0  0  0  0  0
   11.1181   -0.1080    0.0000 H   0  0  0  0  0  0  0  0  0  0  0  0
    6.0780    0.8680    0.0000 H   0  0  0  0  0  0  0  0  0  0  0  0
    8.3190   -0.3037    0.0000 H   0  0  0  0  0  0  0  0  0  0  0  0
    8.4321   -1.9198    0.0000 H   0  0  0  0  0  0  0  0  0  0  0  0
   11.1600   -4.1758    0.0000 H   0  0  0  0  0  0  0  0  0  0  0  0
   12.0207   -4.3431    0.0000 H   0  0  0  0  0  0  0  0  0  0  0  0
   12.1880   -3.4824    0.0000 H   0  0  0  0  0  0  0  0  0  0  0  0
    8.5555   -0.4493    0.0000 H   0  0  0  0  0  0  0  0  0  0  0  0
    2.7083   -2.9239    0.0000 H   0  0  0  0  0  0  0  0  0  0  0  0
    3.5552   -0.8795    0.0000 H   0  0  0  0  0  0  0  0  0  0  0  0
    2.8792   -1.3019    0.0000 H   0  0  0  0  0  0  0  0  0  0  0  0
    7.7950   -1.8797    0.0000 H   0  0  0  0  0  0  0  0  0  0  0  0
    4.3820   -2.0726    0.0000 H   0  0  0  0  0  0  0  0  0  0  0  0
    5.0579   -1.6502    0.0000 H   0  0  0  0  0  0  0  0  0  0  0  0
    6.1760   -1.9363    0.0000 H   0  0  0  0  0  0  0  0  0  0  0  0
   11.0507    1.0236    0.0000 H   0  0  0  0  0  0  0  0  0  0  0  0
    1.9784   -1.7917    0.0000 H   0  0  0  0  0  0  0  0  0  0  0  0
    1.3804   -2.4330    0.0000 H   0  0  0  0  0  0  0  0  0  0  0  0
    2.0216   -3.0310    0.0000 H   0  0  0  0  0  0  0  0  0  0  0  0
    3.0036   -3.5531    0.0000 H   0  0  0  0  0  0  0  0  0  0  0  0
    3.8579   -3.7503    0.0000 H   0  0  0  0  0  0  0  0  0  0  0  0
    4.0551   -2.8960    0.0000 H   0  0  0  0  0  0  0  0  0  0  0  0
    3.8918    3.6891    0.0000 H   0  0  0  0  0  0  0  0  0  0  0  0
    3.8918    0.4491    0.0000 H   0  0  0  0  0  0  0  0  0  0  0  0
    2.4888    1.2591    0.0000 H   0  0  0  0  0  0  0  0  0  0  0  0
  1 22  1  0  0  0  0
  1 34  1  0  0  0  0
  2 40  1  0  0  0  0
  3 13  1  0  0  0  0
  3 19  1  0  0  0  0
  4 16  1  0  0  0  0
  4 61  1  0  0  0  0
  5 28  1  0  0  0  0
  5 32  1  0  0  0  0
  6 18  2  0  0  0  0
  7 20  2  0  0  0  0
  8 10  1  0  0  0  0
  8 20  1  0  0  0  0
  8 22  1  0  0  0  0
  9 22  2  0  0  0  0
  9 35  1  0  0  0  0
 10 11  1  0  0  0  0
 10 14  1  0  0  0  0
 10 42  1  0  0  0  0
 11 16  2  0  0  0  0
 11 18  1  0  0  0  0
 12 13  1  0  0  0  0
 12 15  1  0  0  0  0
 12 43  1  0  0  0  0
 12 44  1  0  0  0  0
 13 26  1  0  0  0  0
 13 45  1  0  0  0  0
 14 23  2  0  0  0  0
 14 27  1  0  0  0  0
 15 19  2  0  0  0  0
 15 21  1  0  0  0  0
 16 17  1  0  0  0  0
 17 21  2  0  0  0  0
 17 24  1  0  0  0  0
 18 20  1  0  0  0  0
 19 25  1  0  0  0  0
 21 46  1  0  0  0  0
 23 28  1  0  0  0  0
 23 47  1  0  0  0  0
 24 25  2  0  0  0  0
 24 48  1  0  0  0  0
 25 49  1  0  0  0  0
 26 50  1  0  0  0  0
 26 51  1  0  0  0  0
 26 52  1  0  0  0  0
 27 31  2  0  0  0  0
 27 53  1  0  0  0  0
 28 33  2  0  0  0  0
 29 30  1  0  0  0  0
 29 36  1  0  0  0  0
 29 37  1  0  0  0  0
 29 54  1  0  0  0  0
 30 32  1  0  0  0  0
 30 55  1  0  0  0  0
 30 56  1  0  0  0  0
 31 33  1  0  0  0  0
 31 57  1  0  0  0  0
 32 58  1  0  0  0  0
 32 59  1  0  0  0  0
 33 60  1  0  0  0  0
 34 35  2  0  0  0  0
 34 38  1  0  0  0  0
 35 39  1  0  0  0  0
 36 62  1  0  0  0  0
 36 63  1  0  0  0  0
 36 64  1  0  0  0  0
 37 65  1  0  0  0  0
 37 66  1  0  0  0  0
 37 67  1  0  0  0  0
 38 40  2  0  0  0  0
 38 68  1  0  0  0  0
 39 41  2  0  0  0  0
 39 69  1  0  0  0  0
 40 41  1  0  0  0  0
 41 70  1  0  0  0  0
M  END
> <PUBCHEM_COMPOUND_CID>
16446617

> <PUBCHEM_COMPOUND_CANONICALIZED>
1

> <PUBCHEM_CACTVS_COMPLEXITY>
1020

> <PUBCHEM_CACTVS_HBOND_ACCEPTOR>
8

> <PUBCHEM_CACTVS_HBOND_DONOR>
1

> <PUBCHEM_CACTVS_ROTATABLE_BOND>
7

> <PUBCHEM_CACTVS_SUBSKEYS>
AAADceB/OQBAAAAAAAAAAAAAAAAAAWLEgAAwYMAAAAAAAFgB9AAAHwQACAAADTzh3g4z17MIFgisA6VydACD+KlhKjhJmD2+bNiMJrrkubuGeCjsxxPI+Se86PyOIAADAAAIAQBAAAYAABACAAAAAAAAAA==

> <PUBCHEM_IUPAC_OPENEYE_NAME>
(4Z)-1-(6-fluoro-1,3-benzothiazol-2-yl)-4-[hydroxy-(2-methyl-2,3-dihydrobenzofuran-5-yl)methylene]-5-(3-isopentyloxyphenyl)pyrrolidine-2,3-dione

> <PUBCHEM_IUPAC_CAS_NAME>
(4Z)-1-(6-fluoro-1,3-benzothiazol-2-yl)-4-[hydroxy-(2-methyl-2,3-dihydrobenzofuran-5-yl)methylidene]-5-[3-(3-methylbutoxy)phenyl]pyrrolidine-2,3-dione

> <PUBCHEM_IUPAC_NAME>
(4Z)-1-(6-fluoro-1,3-benzothiazol-2-yl)-4-[hydroxy-(2-methyl-2,3-dihydro-1-benzofuran-5-yl)methylidene]-5-[3-(3-methylbutoxy)phenyl]pyrrolidine-2,3-dione

> <PUBCHEM_IUPAC_SYSTEMATIC_NAME>
(4Z)-1-(6-fluoranyl-1,3-benzothiazol-2-yl)-5-[3-(3-methylbutoxy)phenyl]-4-[(2-methyl-2,3-dihydro-1-benzofuran-5-yl)-oxidanyl-methylidene]pyrrolidine-2,3-dione

> <PUBCHEM_IUPAC_TRADITIONAL_NAME>
(4Z)-1-(6-fluoro-1,3-benzothiazol-2-yl)-4-[hydroxy-(2-methylcoumaran-5-yl)methylene]-5-(3-isoamoxyphenyl)pyrrolidine-2,3-quinone

> <PUBCHEM_IUPAC_INCHI>
InChI=1S/C32H29FN2O5S/c1-17(2)11-12-39-23-6-4-5-19(15-23)28-27(29(36)20-7-10-25-21(14-20)13-18(3)40-25)30(37)31(38)35(28)32-34-24-9-8-22(33)16-26(24)41-32/h4-10,14-18,28,36H,11-13H2,1-3H3/b29-27-

> <PUBCHEM_IUPAC_INCHIKEY>
UALADMMSEFWDHQ-OHYPFYFLSA-N

> <PUBCHEM_XLOGP3_AA>
7.5

> <PUBCHEM_EXACT_MASS>
572.178

> <PUBCHEM_MOLECULAR_FORMULA>
C32H29FN2O5S

> <PUBCHEM_MOLECULAR_WEIGHT>
572.651

> <PUBCHEM_OPENEYE_CAN_SMILES>
CC1CC2=C(O1)C=CC(=C2)C(=C3C(N(C(=O)C3=O)C4=NC5=C(S4)C=C(C=C5)F)C6=CC(=CC=C6)OCCC(C)C)O

> <PUBCHEM_OPENEYE_ISO_SMILES>
CC1CC2=C(O1)C=CC(=C2)/C(=C/3\C(N(C(=O)C3=O)C4=NC5=C(S4)C=C(C=C5)F)C6=CC(=CC=C6)OCCC(C)C)/O

> <PUBCHEM_CACTVS_TPSA>
117

> <PUBCHEM_MONOISOTOPIC_WEIGHT>
572.178

> <PUBCHEM_TOTAL_CHARGE>
0

> <PUBCHEM_HEAVY_ATOM_COUNT>
41

> <PUBCHEM_ATOM_DEF_STEREO_COUNT>
0

> <PUBCHEM_ATOM_UDEF_STEREO_COUNT>
2

> <PUBCHEM_BOND_DEF_STEREO_COUNT>
1

> <PUBCHEM_BOND_UDEF_STEREO_COUNT>
0

> <PUBCHEM_ISOTOPIC_ATOM_COUNT>
0

> <PUBCHEM_COMPONENT_COUNT>
1

> <PUBCHEM_CACTVS_TAUTO_COUNT>
3

> <PUBCHEM_COORDINATE_TYPE>
1
5
255

> <PUBCHEM_BONDANNOTATIONS>
1  22  8
1  34  8
10  14  3
13  26  3
14  23  8
14  27  8
15  19  8
15  21  8
17  21  8
17  24  8
19  25  8
23  28  8
24  25  8
27  31  8
28  33  8
31  33  8
34  35  8
34  38  8
35  39  8
38  40  8
39  41  8
40  41  8
9  22  8
9  35  8

$$$$
1589300
  -OEChem-11021604552D

 46 48  0     0  0  0  0  0  0999 V2000
    2.3128   -5.1027    0.0000 Cl  0  0  0  0  0  0  0  0  0  0  0  0
    3.7477   -0.6334    0.0000 S   0  0  0  0  0  0  0  0  0  0  0  0
    2.7772    0.8611    0.0000 S   0  0  0  0  0  0  0  0  0  0  0  0
    4.8539   -3.5149    0.0000 O   0  0  0  0  0  0  0  0  0  0  0  0
    6.2204    0.1292    0.0000 O   0  0  0  0  0  0  0  0  0  0  0  0
    3.1590    6.6878    0.0000 O   0  0  0  0  0  0  0  0  0  0  0  0
    2.0000    5.4007    0.0000 O   0  0  0  0  0  0  0  0  0  0  0  0
    4.5568    0.7679    0.0000 N   0  0  0  0  0  0  0  0  0  0  0  0
    4.0215    2.4151    0.0000 C   0  0  0  0  0  0  0  0  0  0  0  0
    4.2294    3.3933    0.0000 C   0  0  0  0  0  0  0  0  0  0  0  0
    4.7647    1.7460    0.0000 C   0  0  0  0  0  0  0  0  0  0  0  0
    3.4863    4.0624    0.0000 C   0  0  0  0  0  0  0  0  0  0  0  0
    3.6942    5.0406    0.0000 C   0  0  0  0  0  0  0  0  0  0  0  0
    5.2259    0.0247    0.0000 C   0  0  0  0  0  0  0  0  0  0  0  0
    3.6432    0.3611    0.0000 C   0  0  0  0  0  0  0  0  0  0  0  0
    4.7259   -0.8413    0.0000 C   0  0  0  0  0  0  0  0  0  0  0  0
    5.1326   -1.7548    0.0000 C   0  0  0  0  0  0  0  0  0  0  0  0
    2.9511    5.7097    0.0000 C   0  0  0  0  0  0  0  0  0  0  0  0
    4.5448   -2.5639    0.0000 C   0  0  0  0  0  0  0  0  0  0  0  0
    4.0448   -4.1027    0.0000 C   0  0  0  0  0  0  0  0  0  0  0  0
    3.5448   -2.5639    0.0000 C   0  0  0  0  0  0  0  0  0  0  0  0
    3.2358   -3.5149    0.0000 C   0  0  0  0  0  0  0  0  0  0  0  0
    4.0448   -5.1027    0.0000 C   0  0  0  0  0  0  0  0  0  0  0  0
    3.1788   -5.6027    0.0000 C   0  0  0  0  0  0  0  0  0  0  0  0
    4.9109   -5.6027    0.0000 C   0  0  0  0  0  0  0  0  0  0  0  0
    3.1788   -6.6027    0.0000 C   0  0  0  0  0  0  0  0  0  0  0  0
    4.9109   -6.6027    0.0000 C   0  0  0  0  0  0  0  0  0  0  0  0
    4.0448   -7.1027    0.0000 C   0  0  0  0  0  0  0  0  0  0  0  0
    3.4467    2.6474    0.0000 H   0  0  0  0  0  0  0  0  0  0  0  0
    3.6930    1.8894    0.0000 H   0  0  0  0  0  0  0  0  0  0  0  0
    4.8043    3.1610    0.0000 H   0  0  0  0  0  0  0  0  0  0  0  0
    4.5580    3.9191    0.0000 H   0  0  0  0  0  0  0  0  0  0  0  0
    5.3395    1.5138    0.0000 H   0  0  0  0  0  0  0  0  0  0  0  0
    5.0932    2.2718    0.0000 H   0  0  0  0  0  0  0  0  0  0  0  0
    2.9114    4.2947    0.0000 H   0  0  0  0  0  0  0  0  0  0  0  0
    3.1577    3.5366    0.0000 H   0  0  0  0  0  0  0  0  0  0  0  0
    4.2691    4.8083    0.0000 H   0  0  0  0  0  0  0  0  0  0  0  0
    4.0228    5.5664    0.0000 H   0  0  0  0  0  0  0  0  0  0  0  0
    5.7492   -1.8197    0.0000 H   0  0  0  0  0  0  0  0  0  0  0  0
    3.1804   -2.0623    0.0000 H   0  0  0  0  0  0  0  0  0  0  0  0
    2.6462   -3.7065    0.0000 H   0  0  0  0  0  0  0  0  0  0  0  0
    5.4478   -5.2927    0.0000 H   0  0  0  0  0  0  0  0  0  0  0  0
    2.6982    7.1027    0.0000 H   0  0  0  0  0  0  0  0  0  0  0  0
    2.6419   -6.9127    0.0000 H   0  0  0  0  0  0  0  0  0  0  0  0
    5.4478   -6.9127    0.0000 H   0  0  0  0  0  0  0  0  0  0  0  0
    4.0448   -7.7227    0.0000 H   0  0  0  0  0  0  0  0  0  0  0  0
  1 24  1  0  0  0  0
  2 15  1  0  0  0  0
  2 16  1  0  0  0  0
  3 15  2  0  0  0  0
  4 19  1  0  0  0  0
  4 20  1  0  0  0  0
  5 14  2  0  0  0  0
  6 18  1  0  0  0  0
  6 43  1  0  0  0  0
  7 18  2  0  0  0  0
  8 11  1  0  0  0  0
  8 14  1  0  0  0  0
  8 15  1  0  0  0  0
  9 10  1  0  0  0  0
  9 11  1  0  0  0  0
  9 29  1  0  0  0  0
  9 30  1  0  0  0  0
 10 12  1  0  0  0  0
 10 31  1  0  0  0  0
 10 32  1  0  0  0  0
 11 33  1  0  0  0  0
 11 34  1  0  0  0  0
 12 13  1  0  0  0  0
 12 35  1  0  0  0  0
 12 36  1  0  0  0  0
 13 18  1  0  0  0  0
 13 37  1  0  0  0  0
 13 38  1  0  0  0  0
 14 16  1  0  0  0  0
 16 17  2  0  0  0  0
 17 19  1  0  0  0  0
 17 39  1  0  0  0  0
 19 21  2  0  0  0  0
 20 22  2  0  0  0  0
 20 23  1  0  0  0  0
 21 22  1  0  0  0  0
 21 40  1  0  0  0  0
 22 41  1  0  0  0  0
 23 24  1  0  0  0  0
 23 25  2  0  0  0  0
 24 26  2  0  0  0  0
 25 27  1  0  0  0  0
 25 42  1  0  0  0  0
 26 28  1  0  0  0  0
 26 44  1  0  0  0  0
 27 28  2  0  0  0  0
 27 45  1  0  0  0  0
 28 46  1  0  0  0  0
M  END
> <PUBCHEM_COMPOUND_CID>
1589300

> <PUBCHEM_COMPOUND_CANONICALIZED>
1

> <PUBCHEM_CACTVS_COMPLEXITY>
642

> <PUBCHEM_CACTVS_HBOND_ACCEPTOR>
6

> <PUBCHEM_CACTVS_HBOND_DONOR>
1

> <PUBCHEM_CACTVS_ROTATABLE_BOND>
8

> <PUBCHEM_CACTVS_SUBSKEYS>
AAADceB6OABkAAAAAAAAAAAAAAAAAWJAAAAwAAAAAAAAAAABwAAAHgYACAAADAbB2CQwDIMABkiMAqHSGACCCABkJRgIiAEOCsgMJjKFtxqGeSCkxhGIrYeYyPCOAAAAAAABAAAAAAAAAAIAAAAAAAAAAA==

> <PUBCHEM_IUPAC_OPENEYE_NAME>
6-[(5Z)-5-[[5-(2-chlorophenyl)-2-furyl]methylene]-4-oxo-2-thioxo-thiazolidin-3-yl]hexanoic acid

> <PUBCHEM_IUPAC_CAS_NAME>
6-[(5Z)-5-[[5-(2-chlorophenyl)-2-furanyl]methylidene]-4-oxo-2-sulfanylidene-3-thiazolidinyl]hexanoic acid

> <PUBCHEM_IUPAC_NAME>
6-[(5Z)-5-[[5-(2-chlorophenyl)furan-2-yl]methylidene]-4-oxo-2-sulfanylidene-1,3-thiazolidin-3-yl]hexanoic acid

> <PUBCHEM_IUPAC_SYSTEMATIC_NAME>
6-[(5Z)-5-[[5-(2-chlorophenyl)furan-2-yl]methylidene]-4-oxidanylidene-2-sulfanylidene-1,3-thiazolidin-3-yl]hexanoic acid

> <PUBCHEM_IUPAC_TRADITIONAL_NAME>
6-[(5Z)-5-[[5-(2-chlorophenyl)-2-furyl]methylene]-4-keto-2-thioxo-thiazolidin-3-yl]hexanoic acid

> <PUBCHEM_IUPAC_INCHI>
InChI=1S/C20H18ClNO4S2/c21-15-7-4-3-6-14(15)16-10-9-13(26-16)12-17-19(25)22(20(27)28-17)11-5-1-2-8-18(23)24/h3-4,6-7,9-10,12H,1-2,5,8,11H2,(H,23,24)/b17-12-

> <PUBCHEM_IUPAC_INCHIKEY>
QKGYQYGCEPXQGO-ATVHPVEESA-N

> <PUBCHEM_XLOGP3_AA>
4.9

> <PUBCHEM_EXACT_MASS>
435.037

> <PUBCHEM_MOLECULAR_FORMULA>
C20H18ClNO4S2

> <PUBCHEM_MOLECULAR_WEIGHT>
435.937

> <PUBCHEM_OPENEYE_CAN_SMILES>
C1=CC=C(C(=C1)C2=CC=C(O2)C=C3C(=O)N(C(=S)S3)CCCCCC(=O)O)Cl

> <PUBCHEM_OPENEYE_ISO_SMILES>
C1=CC=C(C(=C1)C2=CC=C(O2)/C=C\3/C(=O)N(C(=S)S3)CCCCCC(=O)O)Cl

> <PUBCHEM_CACTVS_TPSA>
128

> <PUBCHEM_MONOISOTOPIC_WEIGHT>
435.037

> <PUBCHEM_TOTAL_CHARGE>
0

> <PUBCHEM_HEAVY_ATOM_COUNT>
28

> <PUBCHEM_ATOM_DEF_STEREO_COUNT>
0

> <PUBCHEM_ATOM_UDEF_STEREO_COUNT>
0

> <PUBCHEM_BOND_DEF_STEREO_COUNT>
1

> <PUBCHEM_BOND_UDEF_STEREO_COUNT>
0

> <PUBCHEM_ISOTOPIC_ATOM_COUNT>
0

> <PUBCHEM_COMPONENT_COUNT>
1

> <PUBCHEM_CACTVS_TAUTO_COUNT>
1

> <PUBCHEM_COORDINATE_TYPE>
1
5
255

> <PUBCHEM_BONDANNOTATIONS>
19  21  8
20  22  8
21  22  8
23  24  8
23  25  8
24  26  8
25  27  8
26  28  8
27  28  8
4  19  8
4  20  8

$$$$
7454873
  -OEChem-11021604552D

 40 42  0     0  0  0  0  0  0999 V2000
    3.4350    0.1902    0.0000 S   0  0  0  0  0  0  0  0  0  0  0  0
    2.4644    1.6848    0.0000 S   0  0  0  0  0  0  0  0  0  0  0  0
    2.0000   -4.2791    0.0000 F   0  0  0  0  0  0  0  0  0  0  0  0
    4.5411   -2.6913    0.0000 O   0  0  0  0  0  0  0  0  0  0  0  0
    5.9076    0.9529    0.0000 O   0  0  0  0  0  0  0  0  0  0  0  0
    3.3814    5.8642    0.0000 O   0  0  0  0  0  0  0  0  0  0  0  0
    2.2224    4.5770    0.0000 O   0  0  0  0  0  0  0  0  0  0  0  0
    4.2440    1.5915    0.0000 N   0  0  0  0  0  0  0  0  0  0  0  0
    4.4519    2.5697    0.0000 C   0  0  0  0  0  0  0  0  0  0  0  0
    3.7087    3.2388    0.0000 C   0  0  0  0  0  0  0  0  0  0  0  0
    3.9166    4.2169    0.0000 C   0  0  0  0  0  0  0  0  0  0  0  0
    4.9131    0.8484    0.0000 C   0  0  0  0  0  0  0  0  0  0  0  0
    4.4131   -0.0177    0.0000 C   0  0  0  0  0  0  0  0  0  0  0  0
    3.3304    1.1848    0.0000 C   0  0  0  0  0  0  0  0  0  0  0  0
    4.8198   -0.9312    0.0000 C   0  0  0  0  0  0  0  0  0  0  0  0
    4.2320   -1.7402    0.0000 C   0  0  0  0  0  0  0  0  0  0  0  0
    3.7320   -3.2791    0.0000 C   0  0  0  0  0  0  0  0  0  0  0  0
    3.1735    4.8861    0.0000 C   0  0  0  0  0  0  0  0  0  0  0  0
    3.2320   -1.7402    0.0000 C   0  0  0  0  0  0  0  0  0  0  0  0
    3.7320   -4.2791    0.0000 C   0  0  0  0  0  0  0  0  0  0  0  0
    2.9230   -2.6913    0.0000 C   0  0  0  0  0  0  0  0  0  0  0  0
    2.8660   -4.7791    0.0000 C   0  0  0  0  0  0  0  0  0  0  0  0
    4.5981   -4.7791    0.0000 C   0  0  0  0  0  0  0  0  0  0  0  0
    2.8660   -5.7791    0.0000 C   0  0  0  0  0  0  0  0  0  0  0  0
    4.5981   -5.7791    0.0000 C   0  0  0  0  0  0  0  0  0  0  0  0
    3.7320   -6.2791    0.0000 C   0  0  0  0  0  0  0  0  0  0  0  0
    5.0267    2.3374    0.0000 H   0  0  0  0  0  0  0  0  0  0  0  0
    4.7804    3.0954    0.0000 H   0  0  0  0  0  0  0  0  0  0  0  0
    3.1339    3.4710    0.0000 H   0  0  0  0  0  0  0  0  0  0  0  0
    3.3802    2.7130    0.0000 H   0  0  0  0  0  0  0  0  0  0  0  0
    4.4915    3.9847    0.0000 H   0  0  0  0  0  0  0  0  0  0  0  0
    4.2452    4.7427    0.0000 H   0  0  0  0  0  0  0  0  0  0  0  0
    5.4364   -0.9960    0.0000 H   0  0  0  0  0  0  0  0  0  0  0  0
    2.8676   -1.2386    0.0000 H   0  0  0  0  0  0  0  0  0  0  0  0
    2.3334   -2.8829    0.0000 H   0  0  0  0  0  0  0  0  0  0  0  0
    5.1350   -4.4691    0.0000 H   0  0  0  0  0  0  0  0  0  0  0  0
    2.3291   -6.0891    0.0000 H   0  0  0  0  0  0  0  0  0  0  0  0
    5.1350   -6.0891    0.0000 H   0  0  0  0  0  0  0  0  0  0  0  0
    3.7320   -6.8991    0.0000 H   0  0  0  0  0  0  0  0  0  0  0  0
    2.9207    6.2791    0.0000 H   0  0  0  0  0  0  0  0  0  0  0  0
  1 13  1  0  0  0  0
  1 14  1  0  0  0  0
  2 14  2  0  0  0  0
  3 22  1  0  0  0  0
  4 16  1  0  0  0  0
  4 17  1  0  0  0  0
  5 12  2  0  0  0  0
  6 18  1  0  0  0  0
  6 40  1  0  0  0  0
  7 18  2  0  0  0  0
  8  9  1  0  0  0  0
  8 12  1  0  0  0  0
  8 14  1  0  0  0  0
  9 10  1  0  0  0  0
  9 27  1  0  0  0  0
  9 28  1  0  0  0  0
 10 11  1  0  0  0  0
 10 29  1  0  0  0  0
 10 30  1  0  0  0  0
 11 18  1  0  0  0  0
 11 31  1  0  0  0  0
 11 32  1  0  0  0  0
 12 13  1  0  0  0  0
 13 15  2  0  0  0  0
 15 16  1  0  0  0  0
 15 33  1  0  0  0  0
 16 19  2  0  0  0  0
 17 20  1  0  0  0  0
 17 21  2  0  0  0  0
 19 21  1  0  0  0  0
 19 34  1  0  0  0  0
 20 22  1  0  0  0  0
 20 23  2  0  0  0  0
 21 35  1  0  0  0  0
 22 24  2  0  0  0  0
 23 25  1  0  0  0  0
 23 36  1  0  0  0  0
 24 26  1  0  0  0  0
 24 37  1  0  0  0  0
 25 26  2  0  0  0  0
 25 38  1  0  0  0  0
 26 39  1  0  0  0  0
M  END
> <PUBCHEM_COMPOUND_CID>
7454873

> <PUBCHEM_COMPOUND_CANONICALIZED>
1

> <PUBCHEM_CACTVS_COMPLEXITY>
612

> <PUBCHEM_CACTVS_HBOND_ACCEPTOR>
7

> <PUBCHEM_CACTVS_HBOND_DONOR>
1

> <PUBCHEM_CACTVS_ROTATABLE_BOND>
6

> <PUBCHEM_CACTVS_SUBSKEYS>
AAADccB6OQBgAAAAAAAAAAAAAAAAAWJAAAAwAAAAAAAAAAABwAAAHwQACAAADATB2AwwDIMABkiMAqHSGACCCABkIBgIiAEOCMgMJjKEtRqGeSCkxhGIqYesyPCOAAAAAAAAAAAAAAAAAAAAAAAAAAAAAA==

> <PUBCHEM_IUPAC_OPENEYE_NAME>
4-[(5Z)-5-[[5-(2-fluorophenyl)-2-furyl]methylene]-4-oxo-2-thioxo-thiazolidin-3-yl]butanoic acid

> <PUBCHEM_IUPAC_CAS_NAME>
4-[(5Z)-5-[[5-(2-fluorophenyl)-2-furanyl]methylidene]-4-oxo-2-sulfanylidene-3-thiazolidinyl]butanoic acid

> <PUBCHEM_IUPAC_NAME>
4-[(5Z)-5-[[5-(2-fluorophenyl)furan-2-yl]methylidene]-4-oxo-2-sulfanylidene-1,3-thiazolidin-3-yl]butanoic acid

> <PUBCHEM_IUPAC_SYSTEMATIC_NAME>
4-[(5Z)-5-[[5-(2-fluorophenyl)furan-2-yl]methylidene]-4-oxidanylidene-2-sulfanylidene-1,3-thiazolidin-3-yl]butanoic acid

> <PUBCHEM_IUPAC_TRADITIONAL_NAME>
4-[(5Z)-5-[[5-(2-fluorophenyl)-2-furyl]methylene]-4-keto-2-thioxo-thiazolidin-3-yl]butyric acid

> <PUBCHEM_IUPAC_INCHI>
InChI=1S/C18H14FNO4S2/c19-13-5-2-1-4-12(13)14-8-7-11(24-14)10-15-17(23)20(18(25)26-15)9-3-6-16(21)22/h1-2,4-5,7-8,10H,3,6,9H2,(H,21,22)/b15-10-

> <PUBCHEM_IUPAC_INCHIKEY>
DSISJFIYTZKMCE-GDNBJRDFSA-N

> <PUBCHEM_XLOGP3_AA>
3.7

> <PUBCHEM_EXACT_MASS>
391.035

> <PUBCHEM_MOLECULAR_FORMULA>
C18H14FNO4S2

> <PUBCHEM_MOLECULAR_WEIGHT>
391.431

> <PUBCHEM_OPENEYE_CAN_SMILES>
C1=CC=C(C(=C1)C2=CC=C(O2)C=C3C(=O)N(C(=S)S3)CCCC(=O)O)F

> <PUBCHEM_OPENEYE_ISO_SMILES>
C1=CC=C(C(=C1)C2=CC=C(O2)/C=C\3/C(=O)N(C(=S)S3)CCCC(=O)O)F

> <PUBCHEM_CACTVS_TPSA>
128

> <PUBCHEM_MONOISOTOPIC_WEIGHT>
391.035

> <PUBCHEM_TOTAL_CHARGE>
0

> <PUBCHEM_HEAVY_ATOM_COUNT>
26

> <PUBCHEM_ATOM_DEF_STEREO_COUNT>
0

> <PUBCHEM_ATOM_UDEF_STEREO_COUNT>
0

> <PUBCHEM_BOND_DEF_STEREO_COUNT>
1

> <PUBCHEM_BOND_UDEF_STEREO_COUNT>
0

> <PUBCHEM_ISOTOPIC_ATOM_COUNT>
0

> <PUBCHEM_COMPONENT_COUNT>
1

> <PUBCHEM_CACTVS_TAUTO_COUNT>
1

> <PUBCHEM_COORDINATE_TYPE>
1
5
255

> <PUBCHEM_BONDANNOTATIONS>
16  19  8
17  21  8
19  21  8
20  22  8
20  23  8
22  24  8
23  25  8
24  26  8
25  26  8
4  16  8
4  17  8

$$$$
1589389
  -OEChem-11021604552D

 40 42  0     0  0  0  0  0  0999 V2000
    2.0000   -6.2791    0.0000 Cl  0  0  0  0  0  0  0  0  0  0  0  0
    3.4350    0.1902    0.0000 S   0  0  0  0  0  0  0  0  0  0  0  0
    2.4644    1.6848    0.0000 S   0  0  0  0  0  0  0  0  0  0  0  0
    4.5411   -2.6913    0.0000 O   0  0  0  0  0  0  0  0  0  0  0  0
    5.9076    0.9529    0.0000 O   0  0  0  0  0  0  0  0  0  0  0  0
    3.3814    5.8642    0.0000 O   0  0  0  0  0  0  0  0  0  0  0  0
    2.2224    4.5770    0.0000 O   0  0  0  0  0  0  0  0  0  0  0  0
    4.2440    1.5915    0.0000 N   0  0  0  0  0  0  0  0  0  0  0  0
    4.4519    2.5697    0.0000 C   0  0  0  0  0  0  0  0  0  0  0  0
    3.7087    3.2388    0.0000 C   0  0  0  0  0  0  0  0  0  0  0  0
    3.9166    4.2169    0.0000 C   0  0  0  0  0  0  0  0  0  0  0  0
    4.9131    0.8484    0.0000 C   0  0  0  0  0  0  0  0  0  0  0  0
    4.4131   -0.0177    0.0000 C   0  0  0  0  0  0  0  0  0  0  0  0
    3.3304    1.1848    0.0000 C   0  0  0  0  0  0  0  0  0  0  0  0
    4.8198   -0.9312    0.0000 C   0  0  0  0  0  0  0  0  0  0  0  0
    4.2320   -1.7402    0.0000 C   0  0  0  0  0  0  0  0  0  0  0  0
    3.7320   -3.2791    0.0000 C   0  0  0  0  0  0  0  0  0  0  0  0
    3.1735    4.8861    0.0000 C   0  0  0  0  0  0  0  0  0  0  0  0
    3.2320   -1.7402    0.0000 C   0  0  0  0  0  0  0  0  0  0  0  0
    3.7320   -4.2791    0.0000 C   0  0  0  0  0  0  0  0  0  0  0  0
    2.9230   -2.6913    0.0000 C   0  0  0  0  0  0  0  0  0  0  0  0
    2.8660   -4.7791    0.0000 C   0  0  0  0  0  0  0  0  0  0  0  0
    4.5981   -4.7791    0.0000 C   0  0  0  0  0  0  0  0  0  0  0  0
    2.8660   -5.7791    0.0000 C   0  0  0  0  0  0  0  0  0  0  0  0
    4.5981   -5.7791    0.0000 C   0  0  0  0  0  0  0  0  0  0  0  0
    3.7320   -6.2791    0.0000 C   0  0  0  0  0  0  0  0  0  0  0  0
    5.0267    2.3374    0.0000 H   0  0  0  0  0  0  0  0  0  0  0  0
    4.7804    3.0954    0.0000 H   0  0  0  0  0  0  0  0  0  0  0  0
    3.1339    3.4710    0.0000 H   0  0  0  0  0  0  0  0  0  0  0  0
    3.3802    2.7130    0.0000 H   0  0  0  0  0  0  0  0  0  0  0  0
    4.4915    3.9847    0.0000 H   0  0  0  0  0  0  0  0  0  0  0  0
    4.2452    4.7427    0.0000 H   0  0  0  0  0  0  0  0  0  0  0  0
    5.4364   -0.9960    0.0000 H   0  0  0  0  0  0  0  0  0  0  0  0
    2.8676   -1.2386    0.0000 H   0  0  0  0  0  0  0  0  0  0  0  0
    2.3334   -2.8829    0.0000 H   0  0  0  0  0  0  0  0  0  0  0  0
    2.3291   -4.4691    0.0000 H   0  0  0  0  0  0  0  0  0  0  0  0
    5.1350   -4.4691    0.0000 H   0  0  0  0  0  0  0  0  0  0  0  0
    5.1350   -6.0891    0.0000 H   0  0  0  0  0  0  0  0  0  0  0  0
    3.7320   -6.8991    0.0000 H   0  0  0  0  0  0  0  0  0  0  0  0
    2.9207    6.2791    0.0000 H   0  0  0  0  0  0  0  0  0  0  0  0
  1 24  1  0  0  0  0
  2 13  1  0  0  0  0
  2 14  1  0  0  0  0
  3 14  2  0  0  0  0
  4 16  1  0  0  0  0
  4 17  1  0  0  0  0
  5 12  2  0  0  0  0
  6 18  1  0  0  0  0
  6 40  1  0  0  0  0
  7 18  2  0  0  0  0
  8  9  1  0  0  0  0
  8 12  1  0  0  0  0
  8 14  1  0  0  0  0
  9 10  1  0  0  0  0
  9 27  1  0  0  0  0
  9 28  1  0  0  0  0
 10 11  1  0  0  0  0
 10 29  1  0  0  0  0
 10 30  1  0  0  0  0
 11 18  1  0  0  0  0
 11 31  1  0  0  0  0
 11 32  1  0  0  0  0
 12 13  1  0  0  0  0
 13 15  2  0  0  0  0
 15 16  1  0  0  0  0
 15 33  1  0  0  0  0
 16 19  2  0  0  0  0
 17 20  1  0  0  0  0
 17 21  2  0  0  0  0
 19 21  1  0  0  0  0
 19 34  1  0  0  0  0
 20 22  2  0  0  0  0
 20 23  1  0  0  0  0
 21 35  1  0  0  0  0
 22 24  1  0  0  0  0
 22 36  1  0  0  0  0
 23 25  2  0  0  0  0
 23 37  1  0  0  0  0
 24 26  2  0  0  0  0
 25 26  1  0  0  0  0
 25 38  1  0  0  0  0
 26 39  1  0  0  0  0
M  END
> <PUBCHEM_COMPOUND_CID>
1589389

> <PUBCHEM_COMPOUND_CANONICALIZED>
1

> <PUBCHEM_CACTVS_COMPLEXITY>
612

> <PUBCHEM_CACTVS_HBOND_ACCEPTOR>
6

> <PUBCHEM_CACTVS_HBOND_DONOR>
1

> <PUBCHEM_CACTVS_ROTATABLE_BOND>
6

> <PUBCHEM_CACTVS_SUBSKEYS>
AAADccB6OABkAAAAAAAAAAAAAAAAAWJAAAAwAAAAAAAAAAABwAAAHgYACAAADAbB2CQwDIMABkiMAqHSGACCCABkJRgIiAEOCsgMJjKFtxqGeSCkxhGIqYesyPCOAAAAIAAAAAAAAABAAAAAAAAAAAAAAA==

> <PUBCHEM_IUPAC_OPENEYE_NAME>
4-[(5Z)-5-[[5-(3-chlorophenyl)-2-furyl]methylene]-4-oxo-2-thioxo-thiazolidin-3-yl]butanoic acid

> <PUBCHEM_IUPAC_CAS_NAME>
4-[(5Z)-5-[[5-(3-chlorophenyl)-2-furanyl]methylidene]-4-oxo-2-sulfanylidene-3-thiazolidinyl]butanoic acid

> <PUBCHEM_IUPAC_NAME>
4-[(5Z)-5-[[5-(3-chlorophenyl)furan-2-yl]methylidene]-4-oxo-2-sulfanylidene-1,3-thiazolidin-3-yl]butanoic acid

> <PUBCHEM_IUPAC_SYSTEMATIC_NAME>
4-[(5Z)-5-[[5-(3-chlorophenyl)furan-2-yl]methylidene]-4-oxidanylidene-2-sulfanylidene-1,3-thiazolidin-3-yl]butanoic acid

> <PUBCHEM_IUPAC_TRADITIONAL_NAME>
4-[(5Z)-5-[[5-(3-chlorophenyl)-2-furyl]methylene]-4-keto-2-thioxo-thiazolidin-3-yl]butyric acid

> <PUBCHEM_IUPAC_INCHI>
InChI=1S/C18H14ClNO4S2/c19-12-4-1-3-11(9-12)14-7-6-13(24-14)10-15-17(23)20(18(25)26-15)8-2-5-16(21)22/h1,3-4,6-7,9-10H,2,5,8H2,(H,21,22)/b15-10-

> <PUBCHEM_IUPAC_INCHIKEY>
VZDIEMVRQWTFKY-GDNBJRDFSA-N

> <PUBCHEM_XLOGP3_AA>
4.2

> <PUBCHEM_EXACT_MASS>
407.005

> <PUBCHEM_MOLECULAR_FORMULA>
C18H14ClNO4S2

> <PUBCHEM_MOLECULAR_WEIGHT>
407.883

> <PUBCHEM_OPENEYE_CAN_SMILES>
C1=CC(=CC(=C1)Cl)C2=CC=C(O2)C=C3C(=O)N(C(=S)S3)CCCC(=O)O

> <PUBCHEM_OPENEYE_ISO_SMILES>
C1=CC(=CC(=C1)Cl)C2=CC=C(O2)/C=C\3/C(=O)N(C(=S)S3)CCCC(=O)O

> <PUBCHEM_CACTVS_TPSA>
128

> <PUBCHEM_MONOISOTOPIC_WEIGHT>
407.005

> <PUBCHEM_TOTAL_CHARGE>
0

> <PUBCHEM_HEAVY_ATOM_COUNT>
26

> <PUBCHEM_ATOM_DEF_STEREO_COUNT>
0

> <PUBCHEM_ATOM_UDEF_STEREO_COUNT>
0

> <PUBCHEM_BOND_DEF_STEREO_COUNT>
1

> <PUBCHEM_BOND_UDEF_STEREO_COUNT>
0

> <PUBCHEM_ISOTOPIC_ATOM_COUNT>
0

> <PUBCHEM_COMPONENT_COUNT>
1

> <PUBCHEM_CACTVS_TAUTO_COUNT>
1

> <PUBCHEM_COORDINATE_TYPE>
1
5
255

> <PUBCHEM_BONDANNOTATIONS>
16  19  8
17  21  8
19  21  8
20  22  8
20  23  8
22  24  8
23  25  8
24  26  8
25  26  8
4  16  8
4  17  8

$$$$
44786880
  -OEChem-11021604552D

 40 42  0     1  0  0  0  0  0999 V2000
    2.4435   -3.4554    0.0000 Cl  0  0  0  0  0  0  0  0  0  0  0  0
    5.9076   -5.4554    0.0000 Cl  0  0  0  0  0  0  0  0  0  0  0  0
    4.4727    1.0139    0.0000 S   0  0  0  0  0  0  0  0  0  0  0  0
    5.4432    2.5084    0.0000 S   0  0  0  0  0  0  0  0  0  0  0  0
    3.3666   -1.8676    0.0000 O   0  0  0  0  0  0  0  0  0  0  0  0
    3.9910    5.0406    0.0000 O   0  0  0  0  0  0  0  0  0  0  0  0
    2.0000    1.7765    0.0000 O   0  0  0  0  0  0  0  0  0  0  0  0
    5.1499    3.7534    0.0000 O   0  0  0  0  0  0  0  0  0  0  0  0
    3.6636    2.4151    0.0000 N   0  0  0  0  0  0  0  0  0  0  0  0
    3.4557    3.3933    0.0000 C   0  0  3  0  0  0  0  0  0  0  0  0
    2.5047    3.7023    0.0000 C   0  0  0  0  0  0  0  0  0  0  0  0
    2.9945    1.6720    0.0000 C   0  0  0  0  0  0  0  0  0  0  0  0
    3.4945    0.8060    0.0000 C   0  0  0  0  0  0  0  0  0  0  0  0
    4.5772    2.0084    0.0000 C   0  0  0  0  0  0  0  0  0  0  0  0
    2.2968    4.6805    0.0000 C   0  0  0  0  0  0  0  0  0  0  0  0
    4.1989    4.0624    0.0000 C   0  0  0  0  0  0  0  0  0  0  0  0
    3.0878   -0.1076    0.0000 C   0  0  0  0  0  0  0  0  0  0  0  0
    3.6756   -0.9166    0.0000 C   0  0  0  0  0  0  0  0  0  0  0  0
    4.1756   -2.4554    0.0000 C   0  0  0  0  0  0  0  0  0  0  0  0
    4.6756   -0.9166    0.0000 C   0  0  0  0  0  0  0  0  0  0  0  0
    4.1756   -3.4554    0.0000 C   0  0  0  0  0  0  0  0  0  0  0  0
    4.9846   -1.8676    0.0000 C   0  0  0  0  0  0  0  0  0  0  0  0
    3.3096   -3.9554    0.0000 C   0  0  0  0  0  0  0  0  0  0  0  0
    5.0416   -3.9554    0.0000 C   0  0  0  0  0  0  0  0  0  0  0  0
    5.0416   -4.9554    0.0000 C   0  0  0  0  0  0  0  0  0  0  0  0
    3.3096   -4.9554    0.0000 C   0  0  0  0  0  0  0  0  0  0  0  0
    4.1756   -5.4554    0.0000 C   0  0  0  0  0  0  0  0  0  0  0  0
    4.0454    3.2017    0.0000 H   0  0  0  0  0  0  0  0  0  0  0  0
    1.8851    3.6807    0.0000 H   0  0  0  0  0  0  0  0  0  0  0  0
    2.4184    3.0883    0.0000 H   0  0  0  0  0  0  0  0  0  0  0  0
    2.9032    4.8094    0.0000 H   0  0  0  0  0  0  0  0  0  0  0  0
    2.1679    5.2869    0.0000 H   0  0  0  0  0  0  0  0  0  0  0  0
    1.6903    4.5516    0.0000 H   0  0  0  0  0  0  0  0  0  0  0  0
    2.4712   -0.1724    0.0000 H   0  0  0  0  0  0  0  0  0  0  0  0
    5.0400   -0.4150    0.0000 H   0  0  0  0  0  0  0  0  0  0  0  0
    5.5742   -2.0592    0.0000 H   0  0  0  0  0  0  0  0  0  0  0  0
    4.4517    5.4554    0.0000 H   0  0  0  0  0  0  0  0  0  0  0  0
    5.5785   -3.6454    0.0000 H   0  0  0  0  0  0  0  0  0  0  0  0
    2.7726   -5.2654    0.0000 H   0  0  0  0  0  0  0  0  0  0  0  0
    4.1756   -6.0754    0.0000 H   0  0  0  0  0  0  0  0  0  0  0  0
  1 23  1  0  0  0  0
  2 25  1  0  0  0  0
  3 13  1  0  0  0  0
  3 14  1  0  0  0  0
  4 14  2  0  0  0  0
  5 18  1  0  0  0  0
  5 19  1  0  0  0  0
  6 16  1  0  0  0  0
  6 37  1  0  0  0  0
  7 12  2  0  0  0  0
  8 16  2  0  0  0  0
  9 10  1  0  0  0  0
  9 12  1  0  0  0  0
  9 14  1  0  0  0  0
 10 11  1  0  0  0  0
 10 16  1  0  0  0  0
 10 28  1  0  0  0  0
 11 15  1  0  0  0  0
 11 29  1  0  0  0  0
 11 30  1  0  0  0  0
 12 13  1  0  0  0  0
 13 17  2  0  0  0  0
 15 31  1  0  0  0  0
 15 32  1  0  0  0  0
 15 33  1  0  0  0  0
 17 18  1  0  0  0  0
 17 34  1  0  0  0  0
 18 20  2  0  0  0  0
 19 21  1  0  0  0  0
 19 22  2  0  0  0  0
 20 22  1  0  0  0  0
 20 35  1  0  0  0  0
 21 23  2  0  0  0  0
 21 24  1  0  0  0  0
 22 36  1  0  0  0  0
 23 26  1  0  0  0  0
 24 25  2  0  0  0  0
 24 38  1  0  0  0  0
 25 27  1  0  0  0  0
 26 27  2  0  0  0  0
 26 39  1  0  0  0  0
 27 40  1  0  0  0  0
M  END
> <PUBCHEM_COMPOUND_CID>
44786880

> <PUBCHEM_COMPOUND_CANONICALIZED>
1

> <PUBCHEM_CACTVS_COMPLEXITY>
659

> <PUBCHEM_CACTVS_HBOND_ACCEPTOR>
6

> <PUBCHEM_CACTVS_HBOND_DONOR>
1

> <PUBCHEM_CACTVS_ROTATABLE_BOND>
5

> <PUBCHEM_CACTVS_SUBSKEYS>
AAADccB6OABmAAAAAAAAAAAAAAAAAWJAAAAwAAAAAAAAAAABwAAAHgYACAAADC7B2CQyDIMABkiMAqHSGACCCABkJRgIiAGOCsgOJjKFNzqGeSCkxhGYrYeIyPCOAAAQIAABAAAAACBAAAIAAAAAAAAAAA==

> <PUBCHEM_IUPAC_OPENEYE_NAME>
2-[(5Z)-5-[[5-(2,5-dichlorophenyl)-2-furyl]methylene]-4-oxo-2-thioxo-thiazolidin-3-yl]butanoic acid

> <PUBCHEM_IUPAC_CAS_NAME>
2-[(5Z)-5-[[5-(2,5-dichlorophenyl)-2-furanyl]methylidene]-4-oxo-2-sulfanylidene-3-thiazolidinyl]butanoic acid

> <PUBCHEM_IUPAC_NAME>
2-[(5Z)-5-[[5-(2,5-dichlorophenyl)furan-2-yl]methylidene]-4-oxo-2-sulfanylidene-1,3-thiazolidin-3-yl]butanoic acid

> <PUBCHEM_IUPAC_SYSTEMATIC_NAME>
2-[(5Z)-5-[[5-[2,5-bis(chloranyl)phenyl]furan-2-yl]methylidene]-4-oxidanylidene-2-sulfanylidene-1,3-thiazolidin-3-yl]butanoic acid

> <PUBCHEM_IUPAC_TRADITIONAL_NAME>
2-[(5Z)-5-[[5-(2,5-dichlorophenyl)-2-furyl]methylene]-4-keto-2-thioxo-thiazolidin-3-yl]butyric acid

> <PUBCHEM_IUPAC_INCHI>
InChI=1S/C18H13Cl2NO4S2/c1-2-13(17(23)24)21-16(22)15(27-18(21)26)8-10-4-6-14(25-10)11-7-9(19)3-5-12(11)20/h3-8,13H,2H2,1H3,(H,23,24)/b15-8-

> <PUBCHEM_IUPAC_INCHIKEY>
QQLQLMZZXTVYSS-NVNXTCNLSA-N

> <PUBCHEM_XLOGP3_AA>
5.5

> <PUBCHEM_EXACT_MASS>
440.966

> <PUBCHEM_MOLECULAR_FORMULA>
C18H13Cl2NO4S2

> <PUBCHEM_MOLECULAR_WEIGHT>
442.325

> <PUBCHEM_OPENEYE_CAN_SMILES>
CCC(C(=O)O)N1C(=O)C(=CC2=CC=C(O2)C3=C(C=CC(=C3)Cl)Cl)SC1=S

> <PUBCHEM_OPENEYE_ISO_SMILES>
CCC(C(=O)O)N1C(=O)/C(=C/C2=CC=C(O2)C3=C(C=CC(=C3)Cl)Cl)/SC1=S

> <PUBCHEM_CACTVS_TPSA>
128

> <PUBCHEM_MONOISOTOPIC_WEIGHT>
440.966

> <PUBCHEM_TOTAL_CHARGE>
0

> <PUBCHEM_HEAVY_ATOM_COUNT>
27

> <PUBCHEM_ATOM_DEF_STEREO_COUNT>
0

> <PUBCHEM_ATOM_UDEF_STEREO_COUNT>
1

> <PUBCHEM_BOND_DEF_STEREO_COUNT>
1

> <PUBCHEM_BOND_UDEF_STEREO_COUNT>
0

> <PUBCHEM_ISOTOPIC_ATOM_COUNT>
0

> <PUBCHEM_COMPONENT_COUNT>
1

> <PUBCHEM_CACTVS_TAUTO_COUNT>
1

> <PUBCHEM_COORDINATE_TYPE>
1
5
255

> <PUBCHEM_BONDANNOTATIONS>
10  11  3
18  20  8
19  22  8
20  22  8
21  23  8
21  24  8
23  26  8
24  25  8
25  27  8
26  27  8
5  18  8
5  19  8

$$$$
1544033
  -OEChem-11021604552D

 40 42  0     0  0  0  0  0  0999 V2000
    2.0000   -4.2791    0.0000 Cl  0  0  0  0  0  0  0  0  0  0  0  0
    3.4350    0.1902    0.0000 S   0  0  0  0  0  0  0  0  0  0  0  0
    2.4644    1.6848    0.0000 S   0  0  0  0  0  0  0  0  0  0  0  0
    4.5411   -2.6913    0.0000 O   0  0  0  0  0  0  0  0  0  0  0  0
    5.9076    0.9529    0.0000 O   0  0  0  0  0  0  0  0  0  0  0  0
    3.3814    5.8642    0.0000 O   0  0  0  0  0  0  0  0  0  0  0  0
    2.2224    4.5770    0.0000 O   0  0  0  0  0  0  0  0  0  0  0  0
    4.2440    1.5915    0.0000 N   0  0  0  0  0  0  0  0  0  0  0  0
    4.4519    2.5697    0.0000 C   0  0  0  0  0  0  0  0  0  0  0  0
    3.7087    3.2388    0.0000 C   0  0  0  0  0  0  0  0  0  0  0  0
    3.9166    4.2169    0.0000 C   0  0  0  0  0  0  0  0  0  0  0  0
    4.9131    0.8484    0.0000 C   0  0  0  0  0  0  0  0  0  0  0  0
    4.4131   -0.0177    0.0000 C   0  0  0  0  0  0  0  0  0  0  0  0
    3.3304    1.1848    0.0000 C   0  0  0  0  0  0  0  0  0  0  0  0
    4.8198   -0.9312    0.0000 C   0  0  0  0  0  0  0  0  0  0  0  0
    4.2320   -1.7402    0.0000 C   0  0  0  0  0  0  0  0  0  0  0  0
    3.7320   -3.2791    0.0000 C   0  0  0  0  0  0  0  0  0  0  0  0
    3.2320   -1.7402    0.0000 C   0  0  0  0  0  0  0  0  0  0  0  0
    3.1735    4.8861    0.0000 C   0  0  0  0  0  0  0  0  0  0  0  0
    3.7320   -4.2791    0.0000 C   0  0  0  0  0  0  0  0  0  0  0  0
    2.9230   -2.6913    0.0000 C   0  0  0  0  0  0  0  0  0  0  0  0
    2.8660   -4.7791    0.0000 C   0  0  0  0  0  0  0  0  0  0  0  0
    4.5981   -4.7791    0.0000 C   0  0  0  0  0  0  0  0  0  0  0  0
    2.8660   -5.7791    0.0000 C   0  0  0  0  0  0  0  0  0  0  0  0
    4.5981   -5.7791    0.0000 C   0  0  0  0  0  0  0  0  0  0  0  0
    3.7320   -6.2791    0.0000 C   0  0  0  0  0  0  0  0  0  0  0  0
    5.0267    2.3374    0.0000 H   0  0  0  0  0  0  0  0  0  0  0  0
    4.7804    3.0954    0.0000 H   0  0  0  0  0  0  0  0  0  0  0  0
    3.1339    3.4710    0.0000 H   0  0  0  0  0  0  0  0  0  0  0  0
    3.3802    2.7130    0.0000 H   0  0  0  0  0  0  0  0  0  0  0  0
    4.4915    3.9847    0.0000 H   0  0  0  0  0  0  0  0  0  0  0  0
    4.2452    4.7427    0.0000 H   0  0  0  0  0  0  0  0  0  0  0  0
    5.4364   -0.9960    0.0000 H   0  0  0  0  0  0  0  0  0  0  0  0
    2.8676   -1.2386    0.0000 H   0  0  0  0  0  0  0  0  0  0  0  0
    2.3334   -2.8829    0.0000 H   0  0  0  0  0  0  0  0  0  0  0  0
    5.1350   -4.4691    0.0000 H   0  0  0  0  0  0  0  0  0  0  0  0
    2.3291   -6.0891    0.0000 H   0  0  0  0  0  0  0  0  0  0  0  0
    5.1350   -6.0891    0.0000 H   0  0  0  0  0  0  0  0  0  0  0  0
    3.7320   -6.8991    0.0000 H   0  0  0  0  0  0  0  0  0  0  0  0
    2.9207    6.2791    0.0000 H   0  0  0  0  0  0  0  0  0  0  0  0
  1 22  1  0  0  0  0
  2 13  1  0  0  0  0
  2 14  1  0  0  0  0
  3 14  2  0  0  0  0
  4 16  1  0  0  0  0
  4 17  1  0  0  0  0
  5 12  2  0  0  0  0
  6 19  1  0  0  0  0
  6 40  1  0  0  0  0
  7 19  2  0  0  0  0
  8  9  1  0  0  0  0
  8 12  1  0  0  0  0
  8 14  1  0  0  0  0
  9 10  1  0  0  0  0
  9 27  1  0  0  0  0
  9 28  1  0  0  0  0
 10 11  1  0  0  0  0
 10 29  1  0  0  0  0
 10 30  1  0  0  0  0
 11 19  1  0  0  0  0
 11 31  1  0  0  0  0
 11 32  1  0  0  0  0
 12 13  1  0  0  0  0
 13 15  2  0  0  0  0
 15 16  1  0  0  0  0
 15 33  1  0  0  0  0
 16 18  2  0  0  0  0
 17 20  1  0  0  0  0
 17 21  2  0  0  0  0
 18 21  1  0  0  0  0
 18 34  1  0  0  0  0
 20 22  1  0  0  0  0
 20 23  2  0  0  0  0
 21 35  1  0  0  0  0
 22 24  2  0  0  0  0
 23 25  1  0  0  0  0
 23 36  1  0  0  0  0
 24 26  1  0  0  0  0
 24 37  1  0  0  0  0
 25 26  2  0  0  0  0
 25 38  1  0  0  0  0
 26 39  1  0  0  0  0
M  END
> <PUBCHEM_COMPOUND_CID>
1544033

> <PUBCHEM_COMPOUND_CANONICALIZED>
1

> <PUBCHEM_CACTVS_COMPLEXITY>
612

> <PUBCHEM_CACTVS_HBOND_ACCEPTOR>
6

> <PUBCHEM_CACTVS_HBOND_DONOR>
1

> <PUBCHEM_CACTVS_ROTATABLE_BOND>
6

> <PUBCHEM_CACTVS_SUBSKEYS>
AAADccB6OABkAAAAAAAAAAAAAAAAAWJAAAAwAAAAAAAAAAABwAAAHgYACAAADAbB2CQwDIMABkiMAqHSGACCCABkJRgIiAEOCsgMJjKFtxqGeSCkxhGIrYesyPCOAAAAAAABAAAAAAAAAAIAAAAAAAAAAA==

> <PUBCHEM_IUPAC_OPENEYE_NAME>
4-[(5Z)-5-[[5-(2-chlorophenyl)-2-furyl]methylene]-4-oxo-2-thioxo-thiazolidin-3-yl]butanoic acid

> <PUBCHEM_IUPAC_CAS_NAME>
4-[(5Z)-5-[[5-(2-chlorophenyl)-2-furanyl]methylidene]-4-oxo-2-sulfanylidene-3-thiazolidinyl]butanoic acid

> <PUBCHEM_IUPAC_NAME>
4-[(5Z)-5-[[5-(2-chlorophenyl)furan-2-yl]methylidene]-4-oxo-2-sulfanylidene-1,3-thiazolidin-3-yl]butanoic acid

> <PUBCHEM_IUPAC_SYSTEMATIC_NAME>
4-[(5Z)-5-[[5-(2-chlorophenyl)furan-2-yl]methylidene]-4-oxidanylidene-2-sulfanylidene-1,3-thiazolidin-3-yl]butanoic acid

> <PUBCHEM_IUPAC_TRADITIONAL_NAME>
4-[(5Z)-5-[[5-(2-chlorophenyl)-2-furyl]methylene]-4-keto-2-thioxo-thiazolidin-3-yl]butyric acid

> <PUBCHEM_IUPAC_INCHI>
InChI=1S/C18H14ClNO4S2/c19-13-5-2-1-4-12(13)14-8-7-11(24-14)10-15-17(23)20(18(25)26-15)9-3-6-16(21)22/h1-2,4-5,7-8,10H,3,6,9H2,(H,21,22)/b15-10-

> <PUBCHEM_IUPAC_INCHIKEY>
BMSIUYNXHXLUPO-GDNBJRDFSA-N

> <PUBCHEM_XLOGP3_AA>
4.2

> <PUBCHEM_EXACT_MASS>
407.005

> <PUBCHEM_MOLECULAR_FORMULA>
C18H14ClNO4S2

> <PUBCHEM_MOLECULAR_WEIGHT>
407.883

> <PUBCHEM_OPENEYE_CAN_SMILES>
C1=CC=C(C(=C1)C2=CC=C(O2)C=C3C(=O)N(C(=S)S3)CCCC(=O)O)Cl

> <PUBCHEM_OPENEYE_ISO_SMILES>
C1=CC=C(C(=C1)C2=CC=C(O2)/C=C\3/C(=O)N(C(=S)S3)CCCC(=O)O)Cl

> <PUBCHEM_CACTVS_TPSA>
128

> <PUBCHEM_MONOISOTOPIC_WEIGHT>
407.005

> <PUBCHEM_TOTAL_CHARGE>
0

> <PUBCHEM_HEAVY_ATOM_COUNT>
26

> <PUBCHEM_ATOM_DEF_STEREO_COUNT>
0

> <PUBCHEM_ATOM_UDEF_STEREO_COUNT>
0

> <PUBCHEM_BOND_DEF_STEREO_COUNT>
1

> <PUBCHEM_BOND_UDEF_STEREO_COUNT>
0

> <PUBCHEM_ISOTOPIC_ATOM_COUNT>
0

> <PUBCHEM_COMPONENT_COUNT>
1

> <PUBCHEM_CACTVS_TAUTO_COUNT>
1

> <PUBCHEM_COORDINATE_TYPE>
1
5
255

> <PUBCHEM_BONDANNOTATIONS>
16  18  8
17  21  8
18  21  8
20  22  8
20  23  8
22  24  8
23  25  8
24  26  8
25  26  8
4  16  8
4  17  8

$$$$
44786797
  -OEChem-11021604552D

 43 45  0     1  0  0  0  0  0999 V2000
    2.0000   -4.9554    0.0000 Cl  0  0  0  0  0  0  0  0  0  0  0  0
    3.7320   -5.9554    0.0000 Cl  0  0  0  0  0  0  0  0  0  0  0  0
    3.4350    1.5139    0.0000 S   0  0  0  0  0  0  0  0  0  0  0  0
    2.4644    3.0084    0.0000 S   0  0  0  0  0  0  0  0  0  0  0  0
    3.9166    5.5406    0.0000 O   0  0  0  0  0  0  0  0  0  0  0  0
    4.5411   -1.3676    0.0000 O   0  0  0  0  0  0  0  0  0  0  0  0
    5.9076    2.2765    0.0000 O   0  0  0  0  0  0  0  0  0  0  0  0
    2.7577    4.2534    0.0000 O   0  0  0  0  0  0  0  0  0  0  0  0
    4.2440    2.9151    0.0000 N   0  0  0  0  0  0  0  0  0  0  0  0
    4.4519    3.8933    0.0000 C   0  0  3  0  0  0  0  0  0  0  0  0
    5.4029    4.2023    0.0000 C   0  0  0  0  0  0  0  0  0  0  0  0
    5.6108    5.1805    0.0000 C   0  0  0  0  0  0  0  0  0  0  0  0
    4.9131    2.1720    0.0000 C   0  0  0  0  0  0  0  0  0  0  0  0
    3.7087    4.5624    0.0000 C   0  0  0  0  0  0  0  0  0  0  0  0
    3.3304    2.5084    0.0000 C   0  0  0  0  0  0  0  0  0  0  0  0
    4.4131    1.3060    0.0000 C   0  0  0  0  0  0  0  0  0  0  0  0
    6.5619    5.4895    0.0000 C   0  0  0  0  0  0  0  0  0  0  0  0
    4.8198    0.3924    0.0000 C   0  0  0  0  0  0  0  0  0  0  0  0
    4.2320   -0.4166    0.0000 C   0  0  0  0  0  0  0  0  0  0  0  0
    3.7320   -1.9554    0.0000 C   0  0  0  0  0  0  0  0  0  0  0  0
    3.2320   -0.4166    0.0000 C   0  0  0  0  0  0  0  0  0  0  0  0
    2.9230   -1.3676    0.0000 C   0  0  0  0  0  0  0  0  0  0  0  0
    3.7320   -2.9554    0.0000 C   0  0  0  0  0  0  0  0  0  0  0  0
    2.8660   -3.4554    0.0000 C   0  0  0  0  0  0  0  0  0  0  0  0
    4.5981   -3.4554    0.0000 C   0  0  0  0  0  0  0  0  0  0  0  0
    2.8660   -4.4554    0.0000 C   0  0  0  0  0  0  0  0  0  0  0  0
    4.5981   -4.4554    0.0000 C   0  0  0  0  0  0  0  0  0  0  0  0
    3.7320   -4.9554    0.0000 C   0  0  0  0  0  0  0  0  0  0  0  0
    3.8622    3.7017    0.0000 H   0  0  0  0  0  0  0  0  0  0  0  0
    5.4892    3.5883    0.0000 H   0  0  0  0  0  0  0  0  0  0  0  0
    6.0226    4.1807    0.0000 H   0  0  0  0  0  0  0  0  0  0  0  0
    5.5246    5.7944    0.0000 H   0  0  0  0  0  0  0  0  0  0  0  0
    4.9912    5.2021    0.0000 H   0  0  0  0  0  0  0  0  0  0  0  0
    6.7535    4.8998    0.0000 H   0  0  0  0  0  0  0  0  0  0  0  0
    7.1516    5.6811    0.0000 H   0  0  0  0  0  0  0  0  0  0  0  0
    6.3703    6.0791    0.0000 H   0  0  0  0  0  0  0  0  0  0  0  0
    5.4364    0.3276    0.0000 H   0  0  0  0  0  0  0  0  0  0  0  0
    2.8676    0.0850    0.0000 H   0  0  0  0  0  0  0  0  0  0  0  0
    2.3334   -1.5592    0.0000 H   0  0  0  0  0  0  0  0  0  0  0  0
    3.4559    5.9554    0.0000 H   0  0  0  0  0  0  0  0  0  0  0  0
    2.3291   -3.1454    0.0000 H   0  0  0  0  0  0  0  0  0  0  0  0
    5.1350   -3.1454    0.0000 H   0  0  0  0  0  0  0  0  0  0  0  0
    5.1350   -4.7654    0.0000 H   0  0  0  0  0  0  0  0  0  0  0  0
  1 26  1  0  0  0  0
  2 28  1  0  0  0  0
  3 15  1  0  0  0  0
  3 16  1  0  0  0  0
  4 15  2  0  0  0  0
  5 14  1  0  0  0  0
  5 40  1  0  0  0  0
  6 19  1  0  0  0  0
  6 20  1  0  0  0  0
  7 13  2  0  0  0  0
  8 14  2  0  0  0  0
  9 10  1  0  0  0  0
  9 13  1  0  0  0  0
  9 15  1  0  0  0  0
 10 11  1  0  0  0  0
 10 14  1  0  0  0  0
 10 29  1  0  0  0  0
 11 12  1  0  0  0  0
 11 30  1  0  0  0  0
 11 31  1  0  0  0  0
 12 17  1  0  0  0  0
 12 32  1  0  0  0  0
 12 33  1  0  0  0  0
 13 16  1  0  0  0  0
 16 18  2  0  0  0  0
 17 34  1  0  0  0  0
 17 35  1  0  0  0  0
 17 36  1  0  0  0  0
 18 19  1  0  0  0  0
 18 37  1  0  0  0  0
 19 21  2  0  0  0  0
 20 22  2  0  0  0  0
 20 23  1  0  0  0  0
 21 22  1  0  0  0  0
 21 38  1  0  0  0  0
 22 39  1  0  0  0  0
 23 24  2  0  0  0  0
 23 25  1  0  0  0  0
 24 26  1  0  0  0  0
 24 41  1  0  0  0  0
 25 27  2  0  0  0  0
 25 42  1  0  0  0  0
 26 28  2  0  0  0  0
 27 28  1  0  0  0  0
 27 43  1  0  0  0  0
M  END
> <PUBCHEM_COMPOUND_CID>
44786797

> <PUBCHEM_COMPOUND_CANONICALIZED>
1

> <PUBCHEM_CACTVS_COMPLEXITY>
674

> <PUBCHEM_CACTVS_HBOND_ACCEPTOR>
6

> <PUBCHEM_CACTVS_HBOND_DONOR>
1

> <PUBCHEM_CACTVS_ROTATABLE_BOND>
6

> <PUBCHEM_CACTVS_SUBSKEYS>
AAADccB6OABmAAAAAAAAAAAAAAAAAWJAAAAwAAAAAAAAAAABwAAAHgYACAAADC7B2CQyDIMABkiMAqHSGACCCABkJRgIikGOCsgOJjKFtzqGeSCkxhGYqYeIyPCOBAAAIAAAAAQIAABAAAAACAAAAAAAAA==

> <PUBCHEM_IUPAC_OPENEYE_NAME>
2-[(5Z)-5-[[5-(3,4-dichlorophenyl)-2-furyl]methylene]-4-oxo-2-thioxo-thiazolidin-3-yl]pentanoic acid

> <PUBCHEM_IUPAC_CAS_NAME>
2-[(5Z)-5-[[5-(3,4-dichlorophenyl)-2-furanyl]methylidene]-4-oxo-2-sulfanylidene-3-thiazolidinyl]pentanoic acid

> <PUBCHEM_IUPAC_NAME>
2-[(5Z)-5-[[5-(3,4-dichlorophenyl)furan-2-yl]methylidene]-4-oxo-2-sulfanylidene-1,3-thiazolidin-3-yl]pentanoic acid

> <PUBCHEM_IUPAC_SYSTEMATIC_NAME>
2-[(5Z)-5-[[5-(3,4-dichlorophenyl)furan-2-yl]methylidene]-4-oxidanylidene-2-sulfanylidene-1,3-thiazolidin-3-yl]pentanoic acid

> <PUBCHEM_IUPAC_TRADITIONAL_NAME>
2-[(5Z)-5-[[5-(3,4-dichlorophenyl)-2-furyl]methylene]-4-keto-2-thioxo-thiazolidin-3-yl]valeric acid

> <PUBCHEM_IUPAC_INCHI>
InChI=1S/C19H15Cl2NO4S2/c1-2-3-14(18(24)25)22-17(23)16(28-19(22)27)9-11-5-7-15(26-11)10-4-6-12(20)13(21)8-10/h4-9,14H,2-3H2,1H3,(H,24,25)/b16-9-

> <PUBCHEM_IUPAC_INCHIKEY>
MTGSGKGWDDMUNU-SXGWCWSVSA-N

> <PUBCHEM_XLOGP3_AA>
5.9

> <PUBCHEM_EXACT_MASS>
454.982

> <PUBCHEM_MOLECULAR_FORMULA>
C19H15Cl2NO4S2

> <PUBCHEM_MOLECULAR_WEIGHT>
456.352

> <PUBCHEM_OPENEYE_CAN_SMILES>
CCCC(C(=O)O)N1C(=O)C(=CC2=CC=C(O2)C3=CC(=C(C=C3)Cl)Cl)SC1=S

> <PUBCHEM_OPENEYE_ISO_SMILES>
CCCC(C(=O)O)N1C(=O)/C(=C/C2=CC=C(O2)C3=CC(=C(C=C3)Cl)Cl)/SC1=S

> <PUBCHEM_CACTVS_TPSA>
128

> <PUBCHEM_MONOISOTOPIC_WEIGHT>
454.982

> <PUBCHEM_TOTAL_CHARGE>
0

> <PUBCHEM_HEAVY_ATOM_COUNT>
28

> <PUBCHEM_ATOM_DEF_STEREO_COUNT>
0

> <PUBCHEM_ATOM_UDEF_STEREO_COUNT>
1

> <PUBCHEM_BOND_DEF_STEREO_COUNT>
1

> <PUBCHEM_BOND_UDEF_STEREO_COUNT>
0

> <PUBCHEM_ISOTOPIC_ATOM_COUNT>
0

> <PUBCHEM_COMPONENT_COUNT>
1

> <PUBCHEM_CACTVS_TAUTO_COUNT>
1

> <PUBCHEM_COORDINATE_TYPE>
1
5
255

> <PUBCHEM_BONDANNOTATIONS>
10  11  3
19  21  8
20  22  8
21  22  8
23  24  8
23  25  8
24  26  8
25  27  8
26  28  8
27  28  8
6  19  8
6  20  8

$$$$
16271725
  -OEChem-11021604552D

 46 48  0     1  0  0  0  0  0999 V2000
    2.9705    1.6936    0.0000 S   0  0  0  0  0  0  0  0  0  0  0  0
    2.0000    3.1882    0.0000 S   0  0  0  0  0  0  0  0  0  0  0  0
    4.0767   -1.1879    0.0000 O   0  0  0  0  0  0  0  0  0  0  0  0
    5.4432    2.4563    0.0000 O   0  0  0  0  0  0  0  0  0  0  0  0
    3.4522    5.7203    0.0000 O   0  0  0  0  0  0  0  0  0  0  0  0
    2.2933    4.4332    0.0000 O   0  0  0  0  0  0  0  0  0  0  0  0
    6.0975    5.6692    0.0000 O   0  0  0  0  0  0  0  0  0  0  0  0
    4.4033    6.0293    0.0000 O   0  0  0  0  0  0  0  0  0  0  0  0
    3.7796    3.0949    0.0000 N   0  0  0  0  0  0  0  0  0  0  0  0
    3.9875    4.0730    0.0000 C   0  0  3  0  0  0  0  0  0  0  0  0
    4.9385    4.3821    0.0000 C   0  0  0  0  0  0  0  0  0  0  0  0
    4.4487    2.3518    0.0000 C   0  0  0  0  0  0  0  0  0  0  0  0
    3.9487    1.4857    0.0000 C   0  0  0  0  0  0  0  0  0  0  0  0
    2.8660    2.6882    0.0000 C   0  0  0  0  0  0  0  0  0  0  0  0
    3.2443    4.7422    0.0000 C   0  0  0  0  0  0  0  0  0  0  0  0
    4.3554    0.5722    0.0000 C   0  0  0  0  0  0  0  0  0  0  0  0
    3.7676   -0.2368    0.0000 C   0  0  0  0  0  0  0  0  0  0  0  0
    3.2676   -2.7757    0.0000 C   0  0  0  0  0  0  0  0  0  0  0  0
    3.2676   -1.7757    0.0000 C   0  0  0  0  0  0  0  0  0  0  0  0
    3.2676   -4.7757    0.0000 C   0  0  0  0  0  0  0  0  0  0  0  0
    5.1464    5.3602    0.0000 C   0  0  0  0  0  0  0  0  0  0  0  0
    2.7676   -0.2368    0.0000 C   0  0  0  0  0  0  0  0  0  0  0  0
    2.4586   -1.1879    0.0000 C   0  0  0  0  0  0  0  0  0  0  0  0
    3.2676   -5.7757    0.0000 C   0  0  0  0  0  0  0  0  0  0  0  0
    2.4016   -3.2757    0.0000 C   0  0  0  0  0  0  0  0  0  0  0  0
    4.1337   -3.2757    0.0000 C   0  0  0  0  0  0  0  0  0  0  0  0
    2.4016   -4.2757    0.0000 C   0  0  0  0  0  0  0  0  0  0  0  0
    4.1337   -4.2757    0.0000 C   0  0  0  0  0  0  0  0  0  0  0  0
    2.4016   -6.2757    0.0000 C   0  0  0  0  0  0  0  0  0  0  0  0
    4.4482    3.6582    0.0000 H   0  0  0  0  0  0  0  0  0  0  0  0
    5.0248    3.7681    0.0000 H   0  0  0  0  0  0  0  0  0  0  0  0
    5.5582    4.3604    0.0000 H   0  0  0  0  0  0  0  0  0  0  0  0
    4.9720    0.5074    0.0000 H   0  0  0  0  0  0  0  0  0  0  0  0
    2.4032    0.2648    0.0000 H   0  0  0  0  0  0  0  0  0  0  0  0
    1.8690   -1.3795    0.0000 H   0  0  0  0  0  0  0  0  0  0  0  0
    3.4797   -6.3583    0.0000 H   0  0  0  0  0  0  0  0  0  0  0  0
    3.8782   -5.6680    0.0000 H   0  0  0  0  0  0  0  0  0  0  0  0
    1.8647   -2.9657    0.0000 H   0  0  0  0  0  0  0  0  0  0  0  0
    4.6706   -2.9657    0.0000 H   0  0  0  0  0  0  0  0  0  0  0  0
    1.8647   -4.5857    0.0000 H   0  0  0  0  0  0  0  0  0  0  0  0
    4.6706   -4.5857    0.0000 H   0  0  0  0  0  0  0  0  0  0  0  0
    2.0916   -5.7387    0.0000 H   0  0  0  0  0  0  0  0  0  0  0  0
    1.8647   -6.5857    0.0000 H   0  0  0  0  0  0  0  0  0  0  0  0
    2.7116   -6.8126    0.0000 H   0  0  0  0  0  0  0  0  0  0  0  0
    2.9915    6.1352    0.0000 H   0  0  0  0  0  0  0  0  0  0  0  0
    6.2264    6.2757    0.0000 H   0  0  0  0  0  0  0  0  0  0  0  0
  1 13  1  0  0  0  0
  1 14  1  0  0  0  0
  2 14  2  0  0  0  0
  3 17  1  0  0  0  0
  3 19  1  0  0  0  0
  4 12  2  0  0  0  0
  5 15  1  0  0  0  0
  5 45  1  0  0  0  0
  6 15  2  0  0  0  0
  7 21  1  0  0  0  0
  7 46  1  0  0  0  0
  8 21  2  0  0  0  0
  9 10  1  0  0  0  0
  9 12  1  0  0  0  0
  9 14  1  0  0  0  0
 10 11  1  0  0  0  0
 10 15  1  0  0  0  0
 10 30  1  0  0  0  0
 11 21  1  0  0  0  0
 11 31  1  0  0  0  0
 11 32  1  0  0  0  0
 12 13  1  0  0  0  0
 13 16  2  0  0  0  0
 16 17  1  0  0  0  0
 16 33  1  0  0  0  0
 17 22  2  0  0  0  0
 18 19  1  0  0  0  0
 18 25  2  0  0  0  0
 18 26  1  0  0  0  0
 19 23  2  0  0  0  0
 20 24  1  0  0  0  0
 20 27  2  0  0  0  0
 20 28  1  0  0  0  0
 22 23  1  0  0  0  0
 22 34  1  0  0  0  0
 23 35  1  0  0  0  0
 24 29  1  0  0  0  0
 24 36  1  0  0  0  0
 24 37  1  0  0  0  0
 25 27  1  0  0  0  0
 25 38  1  0  0  0  0
 26 28  2  0  0  0  0
 26 39  1  0  0  0  0
 27 40  1  0  0  0  0
 28 41  1  0  0  0  0
 29 42  1  0  0  0  0
 29 43  1  0  0  0  0
 29 44  1  0  0  0  0
M  END
> <PUBCHEM_COMPOUND_CID>
16271725

> <PUBCHEM_COMPOUND_CANONICALIZED>
1

> <PUBCHEM_CACTVS_COMPLEXITY>
716

> <PUBCHEM_CACTVS_HBOND_ACCEPTOR>
8

> <PUBCHEM_CACTVS_HBOND_DONOR>
2

> <PUBCHEM_CACTVS_ROTATABLE_BOND>
7

> <PUBCHEM_CACTVS_SUBSKEYS>
AAADceB6OABgAAAAAAAAAAAAAAAAAWJAAAAwAAAAAAAAAAABwAAAHgQACAAADCzB2AQyDIMABkiMAqHSGACCCABkIBgIiAGOCMgOJjqENTqGeSCmxhGYqYfLyPCOQAAAAAAAAACAAAAAAAAAAAAAAAAAAA==

> <PUBCHEM_IUPAC_OPENEYE_NAME>
2-[(5Z)-5-[[5-(4-ethylphenyl)-2-furyl]methylene]-4-oxo-2-thioxo-thiazolidin-3-yl]butanedioic acid

> <PUBCHEM_IUPAC_CAS_NAME>
2-[(5Z)-5-[[5-(4-ethylphenyl)-2-furanyl]methylidene]-4-oxo-2-sulfanylidene-3-thiazolidinyl]butanedioic acid

> <PUBCHEM_IUPAC_NAME>
2-[(5Z)-5-[[5-(4-ethylphenyl)furan-2-yl]methylidene]-4-oxo-2-sulfanylidene-1,3-thiazolidin-3-yl]butanedioic acid

> <PUBCHEM_IUPAC_SYSTEMATIC_NAME>
2-[(5Z)-5-[[5-(4-ethylphenyl)furan-2-yl]methylidene]-4-oxidanylidene-2-sulfanylidene-1,3-thiazolidin-3-yl]butanedioic acid

> <PUBCHEM_IUPAC_TRADITIONAL_NAME>
2-[(5Z)-5-[[5-(4-ethylphenyl)-2-furyl]methylene]-4-keto-2-thioxo-thiazolidin-3-yl]succinic acid

> <PUBCHEM_IUPAC_INCHI>
InChI=1S/C20H17NO6S2/c1-2-11-3-5-12(6-4-11)15-8-7-13(27-15)9-16-18(24)21(20(28)29-16)14(19(25)26)10-17(22)23/h3-9,14H,2,10H2,1H3,(H,22,23)(H,25,26)/b16-9-

> <PUBCHEM_IUPAC_INCHIKEY>
JZOJWSJRBKTEGZ-SXGWCWSVSA-N

> <PUBCHEM_XLOGP3_AA>
3.7

> <PUBCHEM_EXACT_MASS>
431.05

> <PUBCHEM_MOLECULAR_FORMULA>
C20H17NO6S2

> <PUBCHEM_MOLECULAR_WEIGHT>
431.477

> <PUBCHEM_OPENEYE_CAN_SMILES>
CCC1=CC=C(C=C1)C2=CC=C(O2)C=C3C(=O)N(C(=S)S3)C(CC(=O)O)C(=O)O

> <PUBCHEM_OPENEYE_ISO_SMILES>
CCC1=CC=C(C=C1)C2=CC=C(O2)/C=C\3/C(=O)N(C(=S)S3)C(CC(=O)O)C(=O)O

> <PUBCHEM_CACTVS_TPSA>
165

> <PUBCHEM_MONOISOTOPIC_WEIGHT>
431.05

> <PUBCHEM_TOTAL_CHARGE>
0

> <PUBCHEM_HEAVY_ATOM_COUNT>
29

> <PUBCHEM_ATOM_DEF_STEREO_COUNT>
0

> <PUBCHEM_ATOM_UDEF_STEREO_COUNT>
1

> <PUBCHEM_BOND_DEF_STEREO_COUNT>
1

> <PUBCHEM_BOND_UDEF_STEREO_COUNT>
0

> <PUBCHEM_ISOTOPIC_ATOM_COUNT>
0

> <PUBCHEM_COMPONENT_COUNT>
1

> <PUBCHEM_CACTVS_TAUTO_COUNT>
1

> <PUBCHEM_COORDINATE_TYPE>
1
5
255

> <PUBCHEM_BONDANNOTATIONS>
10  11  3
17  22  8
18  25  8
18  26  8
19  23  8
20  27  8
20  28  8
22  23  8
25  27  8
26  28  8
3  17  8
3  19  8

$$$$
6064827
  -OEChem-11021604552D

 37 39  0     0  0  0  0  0  0999 V2000
    4.4727    0.5835    0.0000 S   0  0  0  0  0  0  0  0  0  0  0  0
    5.4432    2.0780    0.0000 S   0  0  0  0  0  0  0  0  0  0  0  0
    2.4435   -3.8858    0.0000 F   0  0  0  0  0  0  0  0  0  0  0  0
    3.3666   -2.2980    0.0000 O   0  0  0  0  0  0  0  0  0  0  0  0
    2.0000    1.3462    0.0000 O   0  0  0  0  0  0  0  0  0  0  0  0
    4.7341    5.2793    0.0000 O   0  0  0  0  0  0  0  0  0  0  0  0
    3.0399    4.9192    0.0000 O   0  0  0  0  0  0  0  0  0  0  0  0
    3.6636    1.9848    0.0000 N   0  0  0  0  0  0  0  0  0  0  0  0
    3.4557    2.9629    0.0000 C   0  0  0  0  0  0  0  0  0  0  0  0
    2.9945    1.2416    0.0000 C   0  0  0  0  0  0  0  0  0  0  0  0
    3.4945    0.3756    0.0000 C   0  0  0  0  0  0  0  0  0  0  0  0
    4.1989    3.6321    0.0000 C   0  0  0  0  0  0  0  0  0  0  0  0
    4.5772    1.5780    0.0000 C   0  0  0  0  0  0  0  0  0  0  0  0
    3.6756   -1.3470    0.0000 C   0  0  0  0  0  0  0  0  0  0  0  0
    3.0878   -0.5379    0.0000 C   0  0  0  0  0  0  0  0  0  0  0  0
    4.1756   -2.8858    0.0000 C   0  0  0  0  0  0  0  0  0  0  0  0
    4.1756   -3.8858    0.0000 C   0  0  0  0  0  0  0  0  0  0  0  0
    4.6756   -1.3470    0.0000 C   0  0  0  0  0  0  0  0  0  0  0  0
    4.9846   -2.2980    0.0000 C   0  0  0  0  0  0  0  0  0  0  0  0
    3.9910    4.6102    0.0000 C   0  0  0  0  0  0  0  0  0  0  0  0
    3.3096   -4.3858    0.0000 C   0  0  0  0  0  0  0  0  0  0  0  0
    5.0416   -4.3858    0.0000 C   0  0  0  0  0  0  0  0  0  0  0  0
    3.3096   -5.3858    0.0000 C   0  0  0  0  0  0  0  0  0  0  0  0
    5.0416   -5.3858    0.0000 C   0  0  0  0  0  0  0  0  0  0  0  0
    4.1756   -5.8858    0.0000 C   0  0  0  0  0  0  0  0  0  0  0  0
    3.1272    3.4887    0.0000 H   0  0  0  0  0  0  0  0  0  0  0  0
    2.8809    2.7307    0.0000 H   0  0  0  0  0  0  0  0  0  0  0  0
    4.5274    3.1063    0.0000 H   0  0  0  0  0  0  0  0  0  0  0  0
    4.7737    3.8643    0.0000 H   0  0  0  0  0  0  0  0  0  0  0  0
    2.4712   -0.6027    0.0000 H   0  0  0  0  0  0  0  0  0  0  0  0
    5.0400   -0.8454    0.0000 H   0  0  0  0  0  0  0  0  0  0  0  0
    5.5742   -2.4896    0.0000 H   0  0  0  0  0  0  0  0  0  0  0  0
    5.5785   -4.0758    0.0000 H   0  0  0  0  0  0  0  0  0  0  0  0
    2.7726   -5.6958    0.0000 H   0  0  0  0  0  0  0  0  0  0  0  0
    5.5785   -5.6958    0.0000 H   0  0  0  0  0  0  0  0  0  0  0  0
    4.1756   -6.5058    0.0000 H   0  0  0  0  0  0  0  0  0  0  0  0
    4.6052    5.8858    0.0000 H   0  0  0  0  0  0  0  0  0  0  0  0
  1 11  1  0  0  0  0
  1 13  1  0  0  0  0
  2 13  2  0  0  0  0
  3 21  1  0  0  0  0
  4 14  1  0  0  0  0
  4 16  1  0  0  0  0
  5 10  2  0  0  0  0
  6 20  1  0  0  0  0
  6 37  1  0  0  0  0
  7 20  2  0  0  0  0
  8  9  1  0  0  0  0
  8 10  1  0  0  0  0
  8 13  1  0  0  0  0
  9 12  1  0  0  0  0
  9 26  1  0  0  0  0
  9 27  1  0  0  0  0
 10 11  1  0  0  0  0
 11 15  2  0  0  0  0
 12 20  1  0  0  0  0
 12 28  1  0  0  0  0
 12 29  1  0  0  0  0
 14 15  1  0  0  0  0
 14 18  2  0  0  0  0
 15 30  1  0  0  0  0
 16 17  1  0  0  0  0
 16 19  2  0  0  0  0
 17 21  1  0  0  0  0
 17 22  2  0  0  0  0
 18 19  1  0  0  0  0
 18 31  1  0  0  0  0
 19 32  1  0  0  0  0
 21 23  2  0  0  0  0
 22 24  1  0  0  0  0
 22 33  1  0  0  0  0
 23 25  1  0  0  0  0
 23 34  1  0  0  0  0
 24 25  2  0  0  0  0
 24 35  1  0  0  0  0
 25 36  1  0  0  0  0
M  END
> <PUBCHEM_COMPOUND_CID>
6064827

> <PUBCHEM_COMPOUND_CANONICALIZED>
1

> <PUBCHEM_CACTVS_COMPLEXITY>
597

> <PUBCHEM_CACTVS_HBOND_ACCEPTOR>
7

> <PUBCHEM_CACTVS_HBOND_DONOR>
1

> <PUBCHEM_CACTVS_ROTATABLE_BOND>
5

> <PUBCHEM_CACTVS_SUBSKEYS>
AAADccB6OQBgAAAAAAAAAAAAAAAAAWJAAAAwAAAAAAAAAAABwAAAHwQACAAADATB2AwwDIMABkiMAqHSGACCCABkIBgIiAEOCMgMJjqENRqGeSCmxhGIqYeIyPCOAAAAAAAAAAAAAAAAAAAAAAAAAAAAAA==

> <PUBCHEM_IUPAC_OPENEYE_NAME>
3-[(5Z)-5-[[5-(2-fluorophenyl)-2-furyl]methylene]-4-oxo-2-thioxo-thiazolidin-3-yl]propanoic acid

> <PUBCHEM_IUPAC_CAS_NAME>
3-[(5Z)-5-[[5-(2-fluorophenyl)-2-furanyl]methylidene]-4-oxo-2-sulfanylidene-3-thiazolidinyl]propanoic acid

> <PUBCHEM_IUPAC_NAME>
3-[(5Z)-5-[[5-(2-fluorophenyl)furan-2-yl]methylidene]-4-oxo-2-sulfanylidene-1,3-thiazolidin-3-yl]propanoic acid

> <PUBCHEM_IUPAC_SYSTEMATIC_NAME>
3-[(5Z)-5-[[5-(2-fluorophenyl)furan-2-yl]methylidene]-4-oxidanylidene-2-sulfanylidene-1,3-thiazolidin-3-yl]propanoic acid

> <PUBCHEM_IUPAC_TRADITIONAL_NAME>
3-[(5Z)-5-[[5-(2-fluorophenyl)-2-furyl]methylene]-4-keto-2-thioxo-thiazolidin-3-yl]propionic acid

> <PUBCHEM_IUPAC_INCHI>
InChI=1S/C17H12FNO4S2/c18-12-4-2-1-3-11(12)13-6-5-10(23-13)9-14-16(22)19(17(24)25-14)8-7-15(20)21/h1-6,9H,7-8H2,(H,20,21)/b14-9-

> <PUBCHEM_IUPAC_INCHIKEY>
XKYOTPNVJLREHV-ZROIWOOFSA-N

> <PUBCHEM_XLOGP3_AA>
3.3

> <PUBCHEM_EXACT_MASS>
377.019

> <PUBCHEM_MOLECULAR_FORMULA>
C17H12FNO4S2

> <PUBCHEM_MOLECULAR_WEIGHT>
377.404

> <PUBCHEM_OPENEYE_CAN_SMILES>
C1=CC=C(C(=C1)C2=CC=C(O2)C=C3C(=O)N(C(=S)S3)CCC(=O)O)F

> <PUBCHEM_OPENEYE_ISO_SMILES>
C1=CC=C(C(=C1)C2=CC=C(O2)/C=C\3/C(=O)N(C(=S)S3)CCC(=O)O)F

> <PUBCHEM_CACTVS_TPSA>
128

> <PUBCHEM_MONOISOTOPIC_WEIGHT>
377.019

> <PUBCHEM_TOTAL_CHARGE>
0

> <PUBCHEM_HEAVY_ATOM_COUNT>
25

> <PUBCHEM_ATOM_DEF_STEREO_COUNT>
0

> <PUBCHEM_ATOM_UDEF_STEREO_COUNT>
0

> <PUBCHEM_BOND_DEF_STEREO_COUNT>
1

> <PUBCHEM_BOND_UDEF_STEREO_COUNT>
0

> <PUBCHEM_ISOTOPIC_ATOM_COUNT>
0

> <PUBCHEM_COMPONENT_COUNT>
1

> <PUBCHEM_CACTVS_TAUTO_COUNT>
1

> <PUBCHEM_COORDINATE_TYPE>
1
5
255

> <PUBCHEM_BONDANNOTATIONS>
14  18  8
16  19  8
17  21  8
17  22  8
18  19  8
21  23  8
22  24  8
23  25  8
24  25  8
4  14  8
4  16  8

$$$$
5941094
  -OEChem-11021604552D

 40 42  0     1  0  0  0  0  0999 V2000
    3.2676   -6.0257    0.0000 Br  0  0  0  0  0  0  0  0  0  0  0  0
    2.9705    1.4436    0.0000 S   0  0  0  0  0  0  0  0  0  0  0  0
    2.0000    2.9382    0.0000 S   0  0  0  0  0  0  0  0  0  0  0  0
    4.0767   -1.4379    0.0000 O   0  0  0  0  0  0  0  0  0  0  0  0
    5.4432    2.2063    0.0000 O   0  0  0  0  0  0  0  0  0  0  0  0
    3.4522    5.4703    0.0000 O   0  0  0  0  0  0  0  0  0  0  0  0
    2.2933    4.1832    0.0000 O   0  0  0  0  0  0  0  0  0  0  0  0
    6.0975    5.4192    0.0000 O   0  0  0  0  0  0  0  0  0  0  0  0
    4.4033    5.7793    0.0000 O   0  0  0  0  0  0  0  0  0  0  0  0
    3.7796    2.8449    0.0000 N   0  0  0  0  0  0  0  0  0  0  0  0
    3.9875    3.8230    0.0000 C   0  0  3  0  0  0  0  0  0  0  0  0
    4.9385    4.1321    0.0000 C   0  0  0  0  0  0  0  0  0  0  0  0
    4.4487    2.1018    0.0000 C   0  0  0  0  0  0  0  0  0  0  0  0
    3.9487    1.2357    0.0000 C   0  0  0  0  0  0  0  0  0  0  0  0
    2.8660    2.4382    0.0000 C   0  0  0  0  0  0  0  0  0  0  0  0
    3.2443    4.4922    0.0000 C   0  0  0  0  0  0  0  0  0  0  0  0
    4.3554    0.3222    0.0000 C   0  0  0  0  0  0  0  0  0  0  0  0
    3.7676   -0.4868    0.0000 C   0  0  0  0  0  0  0  0  0  0  0  0
    5.1464    5.1102    0.0000 C   0  0  0  0  0  0  0  0  0  0  0  0
    3.2676   -2.0257    0.0000 C   0  0  0  0  0  0  0  0  0  0  0  0
    2.7676   -0.4868    0.0000 C   0  0  0  0  0  0  0  0  0  0  0  0
    3.2676   -3.0257    0.0000 C   0  0  0  0  0  0  0  0  0  0  0  0
    2.4586   -1.4379    0.0000 C   0  0  0  0  0  0  0  0  0  0  0  0
    2.4016   -3.5257    0.0000 C   0  0  0  0  0  0  0  0  0  0  0  0
    4.1337   -3.5257    0.0000 C   0  0  0  0  0  0  0  0  0  0  0  0
    2.4016   -4.5257    0.0000 C   0  0  0  0  0  0  0  0  0  0  0  0
    4.1337   -4.5257    0.0000 C   0  0  0  0  0  0  0  0  0  0  0  0
    3.2676   -5.0257    0.0000 C   0  0  0  0  0  0  0  0  0  0  0  0
    3.1791    3.5604    0.0000 H   0  0  0  0  0  0  0  0  0  0  0  0
    5.0248    3.5181    0.0000 H   0  0  0  0  0  0  0  0  0  0  0  0
    5.5582    4.1104    0.0000 H   0  0  0  0  0  0  0  0  0  0  0  0
    4.9720    0.2574    0.0000 H   0  0  0  0  0  0  0  0  0  0  0  0
    2.4032    0.0148    0.0000 H   0  0  0  0  0  0  0  0  0  0  0  0
    1.8690   -1.6295    0.0000 H   0  0  0  0  0  0  0  0  0  0  0  0
    1.8647   -3.2157    0.0000 H   0  0  0  0  0  0  0  0  0  0  0  0
    4.6706   -3.2157    0.0000 H   0  0  0  0  0  0  0  0  0  0  0  0
    2.9915    5.8852    0.0000 H   0  0  0  0  0  0  0  0  0  0  0  0
    1.8647   -4.8357    0.0000 H   0  0  0  0  0  0  0  0  0  0  0  0
    4.6706   -4.8357    0.0000 H   0  0  0  0  0  0  0  0  0  0  0  0
    6.2264    6.0257    0.0000 H   0  0  0  0  0  0  0  0  0  0  0  0
  1 28  1  0  0  0  0
  2 14  1  0  0  0  0
  2 15  1  0  0  0  0
  3 15  2  0  0  0  0
  4 18  1  0  0  0  0
  4 20  1  0  0  0  0
  5 13  2  0  0  0  0
  6 16  1  0  0  0  0
  6 37  1  0  0  0  0
  7 16  2  0  0  0  0
  8 19  1  0  0  0  0
  8 40  1  0  0  0  0
  9 19  2  0  0  0  0
 10 11  1  0  0  0  0
 10 13  1  0  0  0  0
 10 15  1  0  0  0  0
 11 12  1  0  0  0  0
 11 16  1  0  0  0  0
 11 29  1  0  0  0  0
 12 19  1  0  0  0  0
 12 30  1  0  0  0  0
 12 31  1  0  0  0  0
 13 14  1  0  0  0  0
 14 17  2  0  0  0  0
 17 18  1  0  0  0  0
 17 32  1  0  0  0  0
 18 21  2  0  0  0  0
 20 22  1  0  0  0  0
 20 23  2  0  0  0  0
 21 23  1  0  0  0  0
 21 33  1  0  0  0  0
 22 24  2  0  0  0  0
 22 25  1  0  0  0  0
 23 34  1  0  0  0  0
 24 26  1  0  0  0  0
 24 35  1  0  0  0  0
 25 27  2  0  0  0  0
 25 36  1  0  0  0  0
 26 28  2  0  0  0  0
 26 38  1  0  0  0  0
 27 28  1  0  0  0  0
 27 39  1  0  0  0  0
M  END
> <PUBCHEM_COMPOUND_CID>
5941094

> <PUBCHEM_COMPOUND_CANONICALIZED>
1

> <PUBCHEM_CACTVS_COMPLEXITY>
706

> <PUBCHEM_CACTVS_HBOND_ACCEPTOR>
8

> <PUBCHEM_CACTVS_HBOND_DONOR>
2

> <PUBCHEM_CACTVS_ROTATABLE_BOND>
6

> <PUBCHEM_CACTVS_SUBSKEYS>
AAADccB6OABgEAAAAAAAAAAAAAAAAWJAAAAwAAAAAAAAAAABwAAAHgRACAABrCzB2AQwDIMABkiMAqHSGACCCABkIBwIiAGOCOgOJjqENTqGeSCmxhGYq5fLyPCOAgAAAAAAAAAEAAAAAAAAAAAAAAAAAA==

> <PUBCHEM_IUPAC_OPENEYE_NAME>
2-[(5Z)-5-[[5-(4-bromophenyl)-2-furyl]methylene]-4-oxo-2-thioxo-thiazolidin-3-yl]butanedioic acid

> <PUBCHEM_IUPAC_CAS_NAME>
2-[(5Z)-5-[[5-(4-bromophenyl)-2-furanyl]methylidene]-4-oxo-2-sulfanylidene-3-thiazolidinyl]butanedioic acid

> <PUBCHEM_IUPAC_NAME>
2-[(5Z)-5-[[5-(4-bromophenyl)furan-2-yl]methylidene]-4-oxo-2-sulfanylidene-1,3-thiazolidin-3-yl]butanedioic acid

> <PUBCHEM_IUPAC_SYSTEMATIC_NAME>
2-[(5Z)-5-[[5-(4-bromophenyl)furan-2-yl]methylidene]-4-oxidanylidene-2-sulfanylidene-1,3-thiazolidin-3-yl]butanedioic acid

> <PUBCHEM_IUPAC_TRADITIONAL_NAME>
2-[(5Z)-5-[[5-(4-bromophenyl)-2-furyl]methylene]-4-keto-2-thioxo-thiazolidin-3-yl]succinic acid

> <PUBCHEM_IUPAC_INCHI>
InChI=1S/C18H12BrNO6S2/c19-10-3-1-9(2-4-10)13-6-5-11(26-13)7-14-16(23)20(18(27)28-14)12(17(24)25)8-15(21)22/h1-7,12H,8H2,(H,21,22)(H,24,25)/b14-7-

> <PUBCHEM_IUPAC_INCHIKEY>
KLTFJVAILHPIBO-AUWJEWJLSA-N

> <PUBCHEM_XLOGP3_AA>
3.6

> <PUBCHEM_EXACT_MASS>
480.929

> <PUBCHEM_MOLECULAR_FORMULA>
C18H12BrNO6S2

> <PUBCHEM_MOLECULAR_WEIGHT>
482.319

> <PUBCHEM_OPENEYE_CAN_SMILES>
C1=CC(=CC=C1C2=CC=C(O2)C=C3C(=O)N(C(=S)S3)C(CC(=O)O)C(=O)O)Br

> <PUBCHEM_OPENEYE_ISO_SMILES>
C1=CC(=CC=C1C2=CC=C(O2)/C=C\3/C(=O)N(C(=S)S3)C(CC(=O)O)C(=O)O)Br

> <PUBCHEM_CACTVS_TPSA>
165

> <PUBCHEM_MONOISOTOPIC_WEIGHT>
480.929

> <PUBCHEM_TOTAL_CHARGE>
0

> <PUBCHEM_HEAVY_ATOM_COUNT>
28

> <PUBCHEM_ATOM_DEF_STEREO_COUNT>
0

> <PUBCHEM_ATOM_UDEF_STEREO_COUNT>
1

> <PUBCHEM_BOND_DEF_STEREO_COUNT>
1

> <PUBCHEM_BOND_UDEF_STEREO_COUNT>
0

> <PUBCHEM_ISOTOPIC_ATOM_COUNT>
0

> <PUBCHEM_COMPONENT_COUNT>
1

> <PUBCHEM_CACTVS_TAUTO_COUNT>
1

> <PUBCHEM_COORDINATE_TYPE>
1
5
255

> <PUBCHEM_BONDANNOTATIONS>
11  29  3
18  21  8
20  23  8
21  23  8
22  24  8
22  25  8
24  26  8
25  27  8
26  28  8
27  28  8
4  18  8
4  20  8

$$$$
6509439
  -OEChem-11021604552D

 37 39  0     1  0  0  0  0  0999 V2000
    2.0000   -4.9554    0.0000 Cl  0  0  0  0  0  0  0  0  0  0  0  0
    3.7320   -5.9554    0.0000 Cl  0  0  0  0  0  0  0  0  0  0  0  0
    3.4350    1.5139    0.0000 S   0  0  0  0  0  0  0  0  0  0  0  0
    2.4644    3.0084    0.0000 S   0  0  0  0  0  0  0  0  0  0  0  0
    4.5411   -1.3676    0.0000 O   0  0  0  0  0  0  0  0  0  0  0  0
    5.9076    2.2765    0.0000 O   0  0  0  0  0  0  0  0  0  0  0  0
    3.9166    5.5406    0.0000 O   0  0  0  0  0  0  0  0  0  0  0  0
    2.7577    4.2534    0.0000 O   0  0  0  0  0  0  0  0  0  0  0  0
    4.2440    2.9151    0.0000 N   0  0  0  0  0  0  0  0  0  0  0  0
    4.4519    3.8933    0.0000 C   0  0  3  0  0  0  0  0  0  0  0  0
    4.9131    2.1720    0.0000 C   0  0  0  0  0  0  0  0  0  0  0  0
    4.4131    1.3060    0.0000 C   0  0  0  0  0  0  0  0  0  0  0  0
    5.4029    4.2023    0.0000 C   0  0  0  0  0  0  0  0  0  0  0  0
    3.3304    2.5084    0.0000 C   0  0  0  0  0  0  0  0  0  0  0  0
    4.8198    0.3924    0.0000 C   0  0  0  0  0  0  0  0  0  0  0  0
    4.2320   -0.4166    0.0000 C   0  0  0  0  0  0  0  0  0  0  0  0
    3.7087    4.5624    0.0000 C   0  0  0  0  0  0  0  0  0  0  0  0
    3.7320   -1.9554    0.0000 C   0  0  0  0  0  0  0  0  0  0  0  0
    3.7320   -2.9554    0.0000 C   0  0  0  0  0  0  0  0  0  0  0  0
    3.2320   -0.4166    0.0000 C   0  0  0  0  0  0  0  0  0  0  0  0
    2.9230   -1.3676    0.0000 C   0  0  0  0  0  0  0  0  0  0  0  0
    2.8660   -3.4554    0.0000 C   0  0  0  0  0  0  0  0  0  0  0  0
    4.5981   -3.4554    0.0000 C   0  0  0  0  0  0  0  0  0  0  0  0
    2.8660   -4.4554    0.0000 C   0  0  0  0  0  0  0  0  0  0  0  0
    4.5981   -4.4554    0.0000 C   0  0  0  0  0  0  0  0  0  0  0  0
    3.7320   -4.9554    0.0000 C   0  0  0  0  0  0  0  0  0  0  0  0
    5.0836    3.3245    0.0000 H   0  0  0  0  0  0  0  0  0  0  0  0
    5.5945    3.6126    0.0000 H   0  0  0  0  0  0  0  0  0  0  0  0
    5.9926    4.3939    0.0000 H   0  0  0  0  0  0  0  0  0  0  0  0
    5.2114    4.7920    0.0000 H   0  0  0  0  0  0  0  0  0  0  0  0
    5.4364    0.3276    0.0000 H   0  0  0  0  0  0  0  0  0  0  0  0
    2.8676    0.0850    0.0000 H   0  0  0  0  0  0  0  0  0  0  0  0
    2.3334   -1.5592    0.0000 H   0  0  0  0  0  0  0  0  0  0  0  0
    2.3291   -3.1454    0.0000 H   0  0  0  0  0  0  0  0  0  0  0  0
    5.1350   -3.1454    0.0000 H   0  0  0  0  0  0  0  0  0  0  0  0
    5.1350   -4.7654    0.0000 H   0  0  0  0  0  0  0  0  0  0  0  0
    3.4559    5.9554    0.0000 H   0  0  0  0  0  0  0  0  0  0  0  0
  1 24  1  0  0  0  0
  2 26  1  0  0  0  0
  3 12  1  0  0  0  0
  3 14  1  0  0  0  0
  4 14  2  0  0  0  0
  5 16  1  0  0  0  0
  5 18  1  0  0  0  0
  6 11  2  0  0  0  0
  7 17  1  0  0  0  0
  7 37  1  0  0  0  0
  8 17  2  0  0  0  0
  9 10  1  0  0  0  0
  9 11  1  0  0  0  0
  9 14  1  0  0  0  0
 10 13  1  0  0  0  0
 10 17  1  0  0  0  0
 10 27  1  0  0  0  0
 11 12  1  0  0  0  0
 12 15  2  0  0  0  0
 13 28  1  0  0  0  0
 13 29  1  0  0  0  0
 13 30  1  0  0  0  0
 15 16  1  0  0  0  0
 15 31  1  0  0  0  0
 16 20  2  0  0  0  0
 18 19  1  0  0  0  0
 18 21  2  0  0  0  0
 19 22  2  0  0  0  0
 19 23  1  0  0  0  0
 20 21  1  0  0  0  0
 20 32  1  0  0  0  0
 21 33  1  0  0  0  0
 22 24  1  0  0  0  0
 22 34  1  0  0  0  0
 23 25  2  0  0  0  0
 23 35  1  0  0  0  0
 24 26  2  0  0  0  0
 25 26  1  0  0  0  0
 25 36  1  0  0  0  0
M  END
> <PUBCHEM_COMPOUND_CID>
6509439

> <PUBCHEM_COMPOUND_CANONICALIZED>
1

> <PUBCHEM_CACTVS_COMPLEXITY>
644

> <PUBCHEM_CACTVS_HBOND_ACCEPTOR>
6

> <PUBCHEM_CACTVS_HBOND_DONOR>
1

> <PUBCHEM_CACTVS_ROTATABLE_BOND>
4

> <PUBCHEM_CACTVS_SUBSKEYS>
AAADccB6OABmAAAAAAAAAAAAAAAAAWJAAAAwAAAAAAAAAAABwAAAHgYACAAADC7B2CQyDIMABkiMAqHSGACCCABkJRgIikGOCsgOJjKFNzqCeSCkxhGYqYeIyPCOBAAAIAAAAAQIAABAAAAACAAAAAAAAA==

> <PUBCHEM_IUPAC_OPENEYE_NAME>
2-[(5Z)-5-[[5-(3,4-dichlorophenyl)-2-furyl]methylene]-4-oxo-2-thioxo-thiazolidin-3-yl]propanoic acid

> <PUBCHEM_IUPAC_CAS_NAME>
2-[(5Z)-5-[[5-(3,4-dichlorophenyl)-2-furanyl]methylidene]-4-oxo-2-sulfanylidene-3-thiazolidinyl]propanoic acid

> <PUBCHEM_IUPAC_NAME>
2-[(5Z)-5-[[5-(3,4-dichlorophenyl)furan-2-yl]methylidene]-4-oxo-2-sulfanylidene-1,3-thiazolidin-3-yl]propanoic acid

> <PUBCHEM_IUPAC_SYSTEMATIC_NAME>
2-[(5Z)-5-[[5-(3,4-dichlorophenyl)furan-2-yl]methylidene]-4-oxidanylidene-2-sulfanylidene-1,3-thiazolidin-3-yl]propanoic acid

> <PUBCHEM_IUPAC_TRADITIONAL_NAME>
2-[(5Z)-5-[[5-(3,4-dichlorophenyl)-2-furyl]methylene]-4-keto-2-thioxo-thiazolidin-3-yl]propionic acid

> <PUBCHEM_IUPAC_INCHI>
InChI=1S/C17H11Cl2NO4S2/c1-8(16(22)23)20-15(21)14(26-17(20)25)7-10-3-5-13(24-10)9-2-4-11(18)12(19)6-9/h2-8H,1H3,(H,22,23)/b14-7-

> <PUBCHEM_IUPAC_INCHIKEY>
RMPBELBATFIZNT-AUWJEWJLSA-N

> <PUBCHEM_XLOGP3_AA>
5

> <PUBCHEM_EXACT_MASS>
426.951

> <PUBCHEM_MOLECULAR_FORMULA>
C17H11Cl2NO4S2

> <PUBCHEM_MOLECULAR_WEIGHT>
428.298

> <PUBCHEM_OPENEYE_CAN_SMILES>
CC(C(=O)O)N1C(=O)C(=CC2=CC=C(O2)C3=CC(=C(C=C3)Cl)Cl)SC1=S

> <PUBCHEM_OPENEYE_ISO_SMILES>
CC(C(=O)O)N1C(=O)/C(=C/C2=CC=C(O2)C3=CC(=C(C=C3)Cl)Cl)/SC1=S

> <PUBCHEM_CACTVS_TPSA>
128

> <PUBCHEM_MONOISOTOPIC_WEIGHT>
426.951

> <PUBCHEM_TOTAL_CHARGE>
0

> <PUBCHEM_HEAVY_ATOM_COUNT>
26

> <PUBCHEM_ATOM_DEF_STEREO_COUNT>
0

> <PUBCHEM_ATOM_UDEF_STEREO_COUNT>
1

> <PUBCHEM_BOND_DEF_STEREO_COUNT>
1

> <PUBCHEM_BOND_UDEF_STEREO_COUNT>
0

> <PUBCHEM_ISOTOPIC_ATOM_COUNT>
0

> <PUBCHEM_COMPONENT_COUNT>
1

> <PUBCHEM_CACTVS_TAUTO_COUNT>
1

> <PUBCHEM_COORDINATE_TYPE>
1
5
255

> <PUBCHEM_BONDANNOTATIONS>
10  27  3
16  20  8
18  21  8
19  22  8
19  23  8
20  21  8
22  24  8
23  25  8
24  26  8
25  26  8
5  16  8
5  18  8

$$$$
1351934
  -OEChem-11021604552D

 40 42  0     0  0  0  0  0  0999 V2000
    2.4435   -4.2791    0.0000 Cl  0  0  0  0  0  0  0  0  0  0  0  0
    5.9076   -6.2791    0.0000 Cl  0  0  0  0  0  0  0  0  0  0  0  0
    4.4727    0.1902    0.0000 S   0  0  0  0  0  0  0  0  0  0  0  0
    5.4432    1.6848    0.0000 S   0  0  0  0  0  0  0  0  0  0  0  0
    3.3666   -2.6913    0.0000 O   0  0  0  0  0  0  0  0  0  0  0  0
    2.0000    0.9529    0.0000 O   0  0  0  0  0  0  0  0  0  0  0  0
    4.5262    5.8642    0.0000 O   0  0  0  0  0  0  0  0  0  0  0  0
    5.6852    4.5770    0.0000 O   0  0  0  0  0  0  0  0  0  0  0  0
    3.6636    1.5915    0.0000 N   0  0  0  0  0  0  0  0  0  0  0  0
    3.4557    2.5697    0.0000 C   0  0  0  0  0  0  0  0  0  0  0  0
    4.1989    3.2388    0.0000 C   0  0  0  0  0  0  0  0  0  0  0  0
    3.9910    4.2169    0.0000 C   0  0  0  0  0  0  0  0  0  0  0  0
    2.9945    0.8484    0.0000 C   0  0  0  0  0  0  0  0  0  0  0  0
    3.4945   -0.0177    0.0000 C   0  0  0  0  0  0  0  0  0  0  0  0
    4.5772    1.1848    0.0000 C   0  0  0  0  0  0  0  0  0  0  0  0
    3.0878   -0.9312    0.0000 C   0  0  0  0  0  0  0  0  0  0  0  0
    3.6756   -1.7402    0.0000 C   0  0  0  0  0  0  0  0  0  0  0  0
    4.1756   -3.2791    0.0000 C   0  0  0  0  0  0  0  0  0  0  0  0
    4.1756   -4.2791    0.0000 C   0  0  0  0  0  0  0  0  0  0  0  0
    4.6756   -1.7402    0.0000 C   0  0  0  0  0  0  0  0  0  0  0  0
    4.7341    4.8861    0.0000 C   0  0  0  0  0  0  0  0  0  0  0  0
    4.9846   -2.6913    0.0000 C   0  0  0  0  0  0  0  0  0  0  0  0
    3.3096   -4.7791    0.0000 C   0  0  0  0  0  0  0  0  0  0  0  0
    5.0416   -4.7791    0.0000 C   0  0  0  0  0  0  0  0  0  0  0  0
    5.0416   -5.7791    0.0000 C   0  0  0  0  0  0  0  0  0  0  0  0
    3.3096   -5.7791    0.0000 C   0  0  0  0  0  0  0  0  0  0  0  0
    4.1756   -6.2791    0.0000 C   0  0  0  0  0  0  0  0  0  0  0  0
    3.1272    3.0954    0.0000 H   0  0  0  0  0  0  0  0  0  0  0  0
    2.8809    2.3374    0.0000 H   0  0  0  0  0  0  0  0  0  0  0  0
    4.5274    2.7130    0.0000 H   0  0  0  0  0  0  0  0  0  0  0  0
    4.7737    3.4710    0.0000 H   0  0  0  0  0  0  0  0  0  0  0  0
    3.6624    4.7427    0.0000 H   0  0  0  0  0  0  0  0  0  0  0  0
    3.4161    3.9847    0.0000 H   0  0  0  0  0  0  0  0  0  0  0  0
    2.4712   -0.9960    0.0000 H   0  0  0  0  0  0  0  0  0  0  0  0
    5.0400   -1.2386    0.0000 H   0  0  0  0  0  0  0  0  0  0  0  0
    5.5742   -2.8829    0.0000 H   0  0  0  0  0  0  0  0  0  0  0  0
    5.5785   -4.4691    0.0000 H   0  0  0  0  0  0  0  0  0  0  0  0
    2.7726   -6.0891    0.0000 H   0  0  0  0  0  0  0  0  0  0  0  0
    4.1756   -6.8991    0.0000 H   0  0  0  0  0  0  0  0  0  0  0  0
    4.9870    6.2791    0.0000 H   0  0  0  0  0  0  0  0  0  0  0  0
  1 23  1  0  0  0  0
  2 25  1  0  0  0  0
  3 14  1  0  0  0  0
  3 15  1  0  0  0  0
  4 15  2  0  0  0  0
  5 17  1  0  0  0  0
  5 18  1  0  0  0  0
  6 13  2  0  0  0  0
  7 21  1  0  0  0  0
  7 40  1  0  0  0  0
  8 21  2  0  0  0  0
  9 10  1  0  0  0  0
  9 13  1  0  0  0  0
  9 15  1  0  0  0  0
 10 11  1  0  0  0  0
 10 28  1  0  0  0  0
 10 29  1  0  0  0  0
 11 12  1  0  0  0  0
 11 30  1  0  0  0  0
 11 31  1  0  0  0  0
 12 21  1  0  0  0  0
 12 32  1  0  0  0  0
 12 33  1  0  0  0  0
 13 14  1  0  0  0  0
 14 16  2  0  0  0  0
 16 17  1  0  0  0  0
 16 34  1  0  0  0  0
 17 20  2  0  0  0  0
 18 19  1  0  0  0  0
 18 22  2  0  0  0  0
 19 23  2  0  0  0  0
 19 24  1  0  0  0  0
 20 22  1  0  0  0  0
 20 35  1  0  0  0  0
 22 36  1  0  0  0  0
 23 26  1  0  0  0  0
 24 25  2  0  0  0  0
 24 37  1  0  0  0  0
 25 27  1  0  0  0  0
 26 27  2  0  0  0  0
 26 38  1  0  0  0  0
 27 39  1  0  0  0  0
M  END
> <PUBCHEM_COMPOUND_CID>
1351934

> <PUBCHEM_COMPOUND_CANONICALIZED>
1

> <PUBCHEM_CACTVS_COMPLEXITY>
645

> <PUBCHEM_CACTVS_HBOND_ACCEPTOR>
6

> <PUBCHEM_CACTVS_HBOND_DONOR>
1

> <PUBCHEM_CACTVS_ROTATABLE_BOND>
6

> <PUBCHEM_CACTVS_SUBSKEYS>
AAADccB6OABmAAAAAAAAAAAAAAAAAWJAAAAwAAAAAAAAAAABwAAAHgYACAAADAbB2CQwDIMABkiMAqHSGACCCABkJRgIiAEOCsgMJjKFtxqGeSCkxhGIrYesyPCOAAAQIAABAAAAACBAAAIAAAAAAAAAAA==

> <PUBCHEM_IUPAC_OPENEYE_NAME>
4-[(5Z)-5-[[5-(2,5-dichlorophenyl)-2-furyl]methylene]-4-oxo-2-thioxo-thiazolidin-3-yl]butanoic acid

> <PUBCHEM_IUPAC_CAS_NAME>
4-[(5Z)-5-[[5-(2,5-dichlorophenyl)-2-furanyl]methylidene]-4-oxo-2-sulfanylidene-3-thiazolidinyl]butanoic acid

> <PUBCHEM_IUPAC_NAME>
4-[(5Z)-5-[[5-(2,5-dichlorophenyl)furan-2-yl]methylidene]-4-oxo-2-sulfanylidene-1,3-thiazolidin-3-yl]butanoic acid

> <PUBCHEM_IUPAC_SYSTEMATIC_NAME>
4-[(5Z)-5-[[5-[2,5-bis(chloranyl)phenyl]furan-2-yl]methylidene]-4-oxidanylidene-2-sulfanylidene-1,3-thiazolidin-3-yl]butanoic acid

> <PUBCHEM_IUPAC_TRADITIONAL_NAME>
4-[(5Z)-5-[[5-(2,5-dichlorophenyl)-2-furyl]methylene]-4-keto-2-thioxo-thiazolidin-3-yl]butyric acid

> <PUBCHEM_IUPAC_INCHI>
InChI=1S/C18H13Cl2NO4S2/c19-10-3-5-13(20)12(8-10)14-6-4-11(25-14)9-15-17(24)21(18(26)27-15)7-1-2-16(22)23/h3-6,8-9H,1-2,7H2,(H,22,23)/b15-9-

> <PUBCHEM_IUPAC_INCHIKEY>
YGLUYWUCUITNSZ-DHDCSXOGSA-N

> <PUBCHEM_XLOGP3_AA>
4.9

> <PUBCHEM_EXACT_MASS>
440.966

> <PUBCHEM_MOLECULAR_FORMULA>
C18H13Cl2NO4S2

> <PUBCHEM_MOLECULAR_WEIGHT>
442.325

> <PUBCHEM_OPENEYE_CAN_SMILES>
C1=CC(=C(C=C1Cl)C2=CC=C(O2)C=C3C(=O)N(C(=S)S3)CCCC(=O)O)Cl

> <PUBCHEM_OPENEYE_ISO_SMILES>
C1=CC(=C(C=C1Cl)C2=CC=C(O2)/C=C\3/C(=O)N(C(=S)S3)CCCC(=O)O)Cl

> <PUBCHEM_CACTVS_TPSA>
128

> <PUBCHEM_MONOISOTOPIC_WEIGHT>
440.966

> <PUBCHEM_TOTAL_CHARGE>
0

> <PUBCHEM_HEAVY_ATOM_COUNT>
27

> <PUBCHEM_ATOM_DEF_STEREO_COUNT>
0

> <PUBCHEM_ATOM_UDEF_STEREO_COUNT>
0

> <PUBCHEM_BOND_DEF_STEREO_COUNT>
1

> <PUBCHEM_BOND_UDEF_STEREO_COUNT>
0

> <PUBCHEM_ISOTOPIC_ATOM_COUNT>
0

> <PUBCHEM_COMPONENT_COUNT>
1

> <PUBCHEM_CACTVS_TAUTO_COUNT>
1

> <PUBCHEM_COORDINATE_TYPE>
1
5
255

> <PUBCHEM_BONDANNOTATIONS>
17  20  8
18  22  8
19  23  8
19  24  8
20  22  8
23  26  8
24  25  8
25  27  8
26  27  8
5  17  8
5  18  8

$$$$
23474918
  -OEChem-11021604552D

 44 46  0     1  0  0  0  0  0999 V2000
    2.0000   -5.2115    0.0000 Cl  0  0  0  0  0  0  0  0  0  0  0  0
    3.7320   -6.2115    0.0000 Cl  0  0  0  0  0  0  0  0  0  0  0  0
    3.4350    1.2578    0.0000 S   0  0  0  0  0  0  0  0  0  0  0  0
    6.5619    5.2334    0.0000 S   0  0  0  0  0  0  0  0  0  0  0  0
    2.4644    2.7523    0.0000 S   0  0  0  0  0  0  0  0  0  0  0  0
    4.5411   -1.6237    0.0000 O   0  0  0  0  0  0  0  0  0  0  0  0
    3.9166    5.2845    0.0000 O   0  0  0  0  0  0  0  0  0  0  0  0
    5.9076    2.0204    0.0000 O   0  0  0  0  0  0  0  0  0  0  0  0
    2.7577    3.9973    0.0000 O   0  0  0  0  0  0  0  0  0  0  0  0
    4.2440    2.6590    0.0000 N   0  0  0  0  0  0  0  0  0  0  0  0
    4.4519    3.6372    0.0000 C   0  0  3  0  0  0  0  0  0  0  0  0
    5.4029    3.9462    0.0000 C   0  0  0  0  0  0  0  0  0  0  0  0
    5.6108    4.9244    0.0000 C   0  0  0  0  0  0  0  0  0  0  0  0
    4.9131    1.9159    0.0000 C   0  0  0  0  0  0  0  0  0  0  0  0
    3.7087    4.3063    0.0000 C   0  0  0  0  0  0  0  0  0  0  0  0
    3.3304    2.2523    0.0000 C   0  0  0  0  0  0  0  0  0  0  0  0
    4.4131    1.0499    0.0000 C   0  0  0  0  0  0  0  0  0  0  0  0
    4.8198    0.1363    0.0000 C   0  0  0  0  0  0  0  0  0  0  0  0
    4.2320   -0.6727    0.0000 C   0  0  0  0  0  0  0  0  0  0  0  0
    3.7320   -2.2115    0.0000 C   0  0  0  0  0  0  0  0  0  0  0  0
    3.2320   -0.6727    0.0000 C   0  0  0  0  0  0  0  0  0  0  0  0
    2.9230   -1.6237    0.0000 C   0  0  0  0  0  0  0  0  0  0  0  0
    3.7320   -3.2115    0.0000 C   0  0  0  0  0  0  0  0  0  0  0  0
    6.7698    6.2115    0.0000 C   0  0  0  0  0  0  0  0  0  0  0  0
    2.8660   -3.7115    0.0000 C   0  0  0  0  0  0  0  0  0  0  0  0
    4.5981   -3.7115    0.0000 C   0  0  0  0  0  0  0  0  0  0  0  0
    2.8660   -4.7115    0.0000 C   0  0  0  0  0  0  0  0  0  0  0  0
    4.5981   -4.7115    0.0000 C   0  0  0  0  0  0  0  0  0  0  0  0
    3.7320   -5.2115    0.0000 C   0  0  0  0  0  0  0  0  0  0  0  0
    3.8622    3.4456    0.0000 H   0  0  0  0  0  0  0  0  0  0  0  0
    5.4892    3.3322    0.0000 H   0  0  0  0  0  0  0  0  0  0  0  0
    6.0226    3.9246    0.0000 H   0  0  0  0  0  0  0  0  0  0  0  0
    5.5246    5.5383    0.0000 H   0  0  0  0  0  0  0  0  0  0  0  0
    4.9912    4.9460    0.0000 H   0  0  0  0  0  0  0  0  0  0  0  0
    5.4364    0.0715    0.0000 H   0  0  0  0  0  0  0  0  0  0  0  0
    2.8676   -0.1711    0.0000 H   0  0  0  0  0  0  0  0  0  0  0  0
    2.3334   -1.8153    0.0000 H   0  0  0  0  0  0  0  0  0  0  0  0
    3.4559    5.6993    0.0000 H   0  0  0  0  0  0  0  0  0  0  0  0
    7.3763    6.0826    0.0000 H   0  0  0  0  0  0  0  0  0  0  0  0
    6.8987    6.8180    0.0000 H   0  0  0  0  0  0  0  0  0  0  0  0
    6.1634    6.3404    0.0000 H   0  0  0  0  0  0  0  0  0  0  0  0
    2.3291   -3.4015    0.0000 H   0  0  0  0  0  0  0  0  0  0  0  0
    5.1350   -3.4015    0.0000 H   0  0  0  0  0  0  0  0  0  0  0  0
    5.1350   -5.0215    0.0000 H   0  0  0  0  0  0  0  0  0  0  0  0
  1 27  1  0  0  0  0
  2 29  1  0  0  0  0
  3 16  1  0  0  0  0
  3 17  1  0  0  0  0
  4 13  1  0  0  0  0
  4 24  1  0  0  0  0
  5 16  2  0  0  0  0
  6 19  1  0  0  0  0
  6 20  1  0  0  0  0
  7 15  1  0  0  0  0
  7 38  1  0  0  0  0
  8 14  2  0  0  0  0
  9 15  2  0  0  0  0
 10 11  1  0  0  0  0
 10 14  1  0  0  0  0
 10 16  1  0  0  0  0
 11 12  1  0  0  0  0
 11 15  1  0  0  0  0
 11 30  1  0  0  0  0
 12 13  1  0  0  0  0
 12 31  1  0  0  0  0
 12 32  1  0  0  0  0
 13 33  1  0  0  0  0
 13 34  1  0  0  0  0
 14 17  1  0  0  0  0
 17 18  2  0  0  0  0
 18 19  1  0  0  0  0
 18 35  1  0  0  0  0
 19 21  2  0  0  0  0
 20 22  2  0  0  0  0
 20 23  1  0  0  0  0
 21 22  1  0  0  0  0
 21 36  1  0  0  0  0
 22 37  1  0  0  0  0
 23 25  2  0  0  0  0
 23 26  1  0  0  0  0
 24 39  1  0  0  0  0
 24 40  1  0  0  0  0
 24 41  1  0  0  0  0
 25 27  1  0  0  0  0
 25 42  1  0  0  0  0
 26 28  2  0  0  0  0
 26 43  1  0  0  0  0
 27 29  2  0  0  0  0
 28 29  1  0  0  0  0
 28 44  1  0  0  0  0
M  END
> <PUBCHEM_COMPOUND_CID>
23474918

> <PUBCHEM_COMPOUND_CANONICALIZED>
1

> <PUBCHEM_CACTVS_COMPLEXITY>
692

> <PUBCHEM_CACTVS_HBOND_ACCEPTOR>
7

> <PUBCHEM_CACTVS_HBOND_DONOR>
1

> <PUBCHEM_CACTVS_ROTATABLE_BOND>
7

> <PUBCHEM_CACTVS_SUBSKEYS>
AAADccB6OABmAAAAAAAAAAAAAAAAAWJAAAAwAAAAAAAAAAABwAAAHgYACAAADC7F2CSyDIMABkiMAqHSGACCCABkJRgIikGOCsgOJjKlNzqGeSCkxhGYqYeIyPCOBAAAIAAAAAQIAABAAAAACAAAAAAAAA==

> <PUBCHEM_IUPAC_OPENEYE_NAME>
2-[(5Z)-5-[[5-(3,4-dichlorophenyl)-2-furyl]methylene]-4-oxo-2-thioxo-thiazolidin-3-yl]-4-methylsulfanyl-butanoic acid

> <PUBCHEM_IUPAC_CAS_NAME>
2-[(5Z)-5-[[5-(3,4-dichlorophenyl)-2-furanyl]methylidene]-4-oxo-2-sulfanylidene-3-thiazolidinyl]-4-(methylthio)butanoic acid

> <PUBCHEM_IUPAC_NAME>
2-[(5Z)-5-[[5-(3,4-dichlorophenyl)furan-2-yl]methylidene]-4-oxo-2-sulfanylidene-1,3-thiazolidin-3-yl]-4-methylsulfanylbutanoic acid

> <PUBCHEM_IUPAC_SYSTEMATIC_NAME>
2-[(5Z)-5-[[5-(3,4-dichlorophenyl)furan-2-yl]methylidene]-4-oxidanylidene-2-sulfanylidene-1,3-thiazolidin-3-yl]-4-methylsulfanyl-butanoic acid

> <PUBCHEM_IUPAC_TRADITIONAL_NAME>
2-[(5Z)-5-[[5-(3,4-dichlorophenyl)-2-furyl]methylene]-4-keto-2-thioxo-thiazolidin-3-yl]-4-(methylthio)butyric acid

> <PUBCHEM_IUPAC_INCHI>
InChI=1S/C19H15Cl2NO4S3/c1-28-7-6-14(18(24)25)22-17(23)16(29-19(22)27)9-11-3-5-15(26-11)10-2-4-12(20)13(21)8-10/h2-5,8-9,14H,6-7H2,1H3,(H,24,25)/b16-9-

> <PUBCHEM_IUPAC_INCHIKEY>
HSSJGOYABIOKSH-SXGWCWSVSA-N

> <PUBCHEM_XLOGP3_AA>
5.6

> <PUBCHEM_EXACT_MASS>
486.954

> <PUBCHEM_MOLECULAR_FORMULA>
C19H15Cl2NO4S3

> <PUBCHEM_MOLECULAR_WEIGHT>
488.412

> <PUBCHEM_OPENEYE_CAN_SMILES>
CSCCC(C(=O)O)N1C(=O)C(=CC2=CC=C(O2)C3=CC(=C(C=C3)Cl)Cl)SC1=S

> <PUBCHEM_OPENEYE_ISO_SMILES>
CSCCC(C(=O)O)N1C(=O)/C(=C/C2=CC=C(O2)C3=CC(=C(C=C3)Cl)Cl)/SC1=S

> <PUBCHEM_CACTVS_TPSA>
153

> <PUBCHEM_MONOISOTOPIC_WEIGHT>
486.954

> <PUBCHEM_TOTAL_CHARGE>
0

> <PUBCHEM_HEAVY_ATOM_COUNT>
29

> <PUBCHEM_ATOM_DEF_STEREO_COUNT>
0

> <PUBCHEM_ATOM_UDEF_STEREO_COUNT>
1

> <PUBCHEM_BOND_DEF_STEREO_COUNT>
1

> <PUBCHEM_BOND_UDEF_STEREO_COUNT>
0

> <PUBCHEM_ISOTOPIC_ATOM_COUNT>
0

> <PUBCHEM_COMPONENT_COUNT>
1

> <PUBCHEM_CACTVS_TAUTO_COUNT>
1

> <PUBCHEM_COORDINATE_TYPE>
1
5
255

> <PUBCHEM_BONDANNOTATIONS>
11  12  3
19  21  8
20  22  8
21  22  8
23  25  8
23  26  8
25  27  8
26  28  8
27  29  8
28  29  8
6  19  8
6  20  8

$$$$
1368457
  -OEChem-11021604552D

 37 39  0     0  0  0  0  0  0999 V2000
    2.0000   -5.8858    0.0000 Cl  0  0  0  0  0  0  0  0  0  0  0  0
    3.4350    0.5835    0.0000 S   0  0  0  0  0  0  0  0  0  0  0  0
    2.4644    2.0780    0.0000 S   0  0  0  0  0  0  0  0  0  0  0  0
    4.5411   -2.2980    0.0000 O   0  0  0  0  0  0  0  0  0  0  0  0
    5.9076    1.3462    0.0000 O   0  0  0  0  0  0  0  0  0  0  0  0
    3.1735    5.2793    0.0000 O   0  0  0  0  0  0  0  0  0  0  0  0
    4.8677    4.9192    0.0000 O   0  0  0  0  0  0  0  0  0  0  0  0
    4.2440    1.9848    0.0000 N   0  0  0  0  0  0  0  0  0  0  0  0
    4.4519    2.9629    0.0000 C   0  0  0  0  0  0  0  0  0  0  0  0
    4.9131    1.2416    0.0000 C   0  0  0  0  0  0  0  0  0  0  0  0
    4.4131    0.3756    0.0000 C   0  0  0  0  0  0  0  0  0  0  0  0
    3.7087    3.6321    0.0000 C   0  0  0  0  0  0  0  0  0  0  0  0
    3.3304    1.5780    0.0000 C   0  0  0  0  0  0  0  0  0  0  0  0
    4.2320   -1.3470    0.0000 C   0  0  0  0  0  0  0  0  0  0  0  0
    4.8198   -0.5379    0.0000 C   0  0  0  0  0  0  0  0  0  0  0  0
    3.7320   -2.8858    0.0000 C   0  0  0  0  0  0  0  0  0  0  0  0
    3.7320   -3.8858    0.0000 C   0  0  0  0  0  0  0  0  0  0  0  0
    3.2320   -1.3470    0.0000 C   0  0  0  0  0  0  0  0  0  0  0  0
    2.9230   -2.2980    0.0000 C   0  0  0  0  0  0  0  0  0  0  0  0
    3.9166    4.6102    0.0000 C   0  0  0  0  0  0  0  0  0  0  0  0
    2.8660   -4.3858    0.0000 C   0  0  0  0  0  0  0  0  0  0  0  0
    4.5981   -4.3858    0.0000 C   0  0  0  0  0  0  0  0  0  0  0  0
    2.8660   -5.3858    0.0000 C   0  0  0  0  0  0  0  0  0  0  0  0
    4.5981   -5.3858    0.0000 C   0  0  0  0  0  0  0  0  0  0  0  0
    3.7320   -5.8858    0.0000 C   0  0  0  0  0  0  0  0  0  0  0  0
    5.0267    2.7307    0.0000 H   0  0  0  0  0  0  0  0  0  0  0  0
    4.7804    3.4887    0.0000 H   0  0  0  0  0  0  0  0  0  0  0  0
    3.1339    3.8643    0.0000 H   0  0  0  0  0  0  0  0  0  0  0  0
    3.3802    3.1063    0.0000 H   0  0  0  0  0  0  0  0  0  0  0  0
    5.4364   -0.6027    0.0000 H   0  0  0  0  0  0  0  0  0  0  0  0
    2.8676   -0.8454    0.0000 H   0  0  0  0  0  0  0  0  0  0  0  0
    2.3334   -2.4896    0.0000 H   0  0  0  0  0  0  0  0  0  0  0  0
    2.3291   -4.0758    0.0000 H   0  0  0  0  0  0  0  0  0  0  0  0
    5.1350   -4.0758    0.0000 H   0  0  0  0  0  0  0  0  0  0  0  0
    5.1350   -5.6958    0.0000 H   0  0  0  0  0  0  0  0  0  0  0  0
    3.7320   -6.5058    0.0000 H   0  0  0  0  0  0  0  0  0  0  0  0
    3.3024    5.8858    0.0000 H   0  0  0  0  0  0  0  0  0  0  0  0
  1 23  1  0  0  0  0
  2 11  1  0  0  0  0
  2 13  1  0  0  0  0
  3 13  2  0  0  0  0
  4 14  1  0  0  0  0
  4 16  1  0  0  0  0
  5 10  2  0  0  0  0
  6 20  1  0  0  0  0
  6 37  1  0  0  0  0
  7 20  2  0  0  0  0
  8  9  1  0  0  0  0
  8 10  1  0  0  0  0
  8 13  1  0  0  0  0
  9 12  1  0  0  0  0
  9 26  1  0  0  0  0
  9 27  1  0  0  0  0
 10 11  1  0  0  0  0
 11 15  2  0  0  0  0
 12 20  1  0  0  0  0
 12 28  1  0  0  0  0
 12 29  1  0  0  0  0
 14 15  1  0  0  0  0
 14 18  2  0  0  0  0
 15 30  1  0  0  0  0
 16 17  1  0  0  0  0
 16 19  2  0  0  0  0
 17 21  2  0  0  0  0
 17 22  1  0  0  0  0
 18 19  1  0  0  0  0
 18 31  1  0  0  0  0
 19 32  1  0  0  0  0
 21 23  1  0  0  0  0
 21 33  1  0  0  0  0
 22 24  2  0  0  0  0
 22 34  1  0  0  0  0
 23 25  2  0  0  0  0
 24 25  1  0  0  0  0
 24 35  1  0  0  0  0
 25 36  1  0  0  0  0
M  END
> <PUBCHEM_COMPOUND_CID>
1368457

> <PUBCHEM_COMPOUND_CANONICALIZED>
1

> <PUBCHEM_CACTVS_COMPLEXITY>
597

> <PUBCHEM_CACTVS_HBOND_ACCEPTOR>
6

> <PUBCHEM_CACTVS_HBOND_DONOR>
1

> <PUBCHEM_CACTVS_ROTATABLE_BOND>
5

> <PUBCHEM_CACTVS_SUBSKEYS>
AAADccB6OABkAAAAAAAAAAAAAAAAAWJAAAAwAAAAAAAAAAABwAAAHgYACAAADAbB2CQwDIMABkiMAqHSGACCCABkJRgIiAEOCsgMJjqFNxqGeSCmxhGIqYeIyPCOAAAAIAAAAAAAAABAAAAAAAAAAAAAAA==

> <PUBCHEM_IUPAC_OPENEYE_NAME>
3-[(5Z)-5-[[5-(3-chlorophenyl)-2-furyl]methylene]-4-oxo-2-thioxo-thiazolidin-3-yl]propanoic acid

> <PUBCHEM_IUPAC_CAS_NAME>
3-[(5Z)-5-[[5-(3-chlorophenyl)-2-furanyl]methylidene]-4-oxo-2-sulfanylidene-3-thiazolidinyl]propanoic acid

> <PUBCHEM_IUPAC_NAME>
3-[(5Z)-5-[[5-(3-chlorophenyl)furan-2-yl]methylidene]-4-oxo-2-sulfanylidene-1,3-thiazolidin-3-yl]propanoic acid

> <PUBCHEM_IUPAC_SYSTEMATIC_NAME>
3-[(5Z)-5-[[5-(3-chlorophenyl)furan-2-yl]methylidene]-4-oxidanylidene-2-sulfanylidene-1,3-thiazolidin-3-yl]propanoic acid

> <PUBCHEM_IUPAC_TRADITIONAL_NAME>
3-[(5Z)-5-[[5-(3-chlorophenyl)-2-furyl]methylene]-4-keto-2-thioxo-thiazolidin-3-yl]propionic acid

> <PUBCHEM_IUPAC_INCHI>
InChI=1S/C17H12ClNO4S2/c18-11-3-1-2-10(8-11)13-5-4-12(23-13)9-14-16(22)19(17(24)25-14)7-6-15(20)21/h1-5,8-9H,6-7H2,(H,20,21)/b14-9-

> <PUBCHEM_IUPAC_INCHIKEY>
RXVQGIXCWXKRCJ-ZROIWOOFSA-N

> <PUBCHEM_XLOGP3_AA>
3.9

> <PUBCHEM_EXACT_MASS>
392.99

> <PUBCHEM_MOLECULAR_FORMULA>
C17H12ClNO4S2

> <PUBCHEM_MOLECULAR_WEIGHT>
393.856

> <PUBCHEM_OPENEYE_CAN_SMILES>
C1=CC(=CC(=C1)Cl)C2=CC=C(O2)C=C3C(=O)N(C(=S)S3)CCC(=O)O

> <PUBCHEM_OPENEYE_ISO_SMILES>
C1=CC(=CC(=C1)Cl)C2=CC=C(O2)/C=C\3/C(=O)N(C(=S)S3)CCC(=O)O

> <PUBCHEM_CACTVS_TPSA>
128

> <PUBCHEM_MONOISOTOPIC_WEIGHT>
392.99

> <PUBCHEM_TOTAL_CHARGE>
0

> <PUBCHEM_HEAVY_ATOM_COUNT>
25

> <PUBCHEM_ATOM_DEF_STEREO_COUNT>
0

> <PUBCHEM_ATOM_UDEF_STEREO_COUNT>
0

> <PUBCHEM_BOND_DEF_STEREO_COUNT>
1

> <PUBCHEM_BOND_UDEF_STEREO_COUNT>
0

> <PUBCHEM_ISOTOPIC_ATOM_COUNT>
0

> <PUBCHEM_COMPONENT_COUNT>
1

> <PUBCHEM_CACTVS_TAUTO_COUNT>
1

> <PUBCHEM_COORDINATE_TYPE>
1
5
255

> <PUBCHEM_BONDANNOTATIONS>
14  18  8
16  19  8
17  21  8
17  22  8
18  19  8
21  23  8
22  24  8
23  25  8
24  25  8
4  14  8
4  16  8

$$$$
71718392
  -OEChem-11021604552D

 51 53  0     1  0  0  0  0  0999 V2000
    3.4350    2.0835    0.0000 S   0  0  0  0  0  0  0  0  0  0  0  0
    2.4644    3.5780    0.0000 S   0  0  0  0  0  0  0  0  0  0  0  0
    4.5411   -0.7980    0.0000 O   0  0  0  0  0  0  0  0  0  0  0  0
    6.1461    4.1028    0.0000 O   0  0  0  0  0  0  0  0  0  0  0  0
    5.9076    2.8462    0.0000 O   0  0  0  0  0  0  0  0  0  0  0  0
    3.1735    6.7793    0.0000 O   0  0  0  0  0  0  0  0  0  0  0  0
    4.8677    6.4192    0.0000 O   0  0  0  0  0  0  0  0  0  0  0  0
    2.8660   -5.8858    0.0000 O   0  0  0  0  0  0  0  0  0  0  0  0
    4.5981   -5.8858    0.0000 O   0  0  0  0  0  0  0  0  0  0  0  0
    4.2440    3.4848    0.0000 N   0  0  0  0  0  0  0  0  0  0  0  0
    4.4519    4.4629    0.0000 C   0  0  3  0  0  0  0  0  0  0  0  0
    3.7087    5.1321    0.0000 C   0  0  0  0  0  0  0  0  0  0  0  0
    5.4029    4.7720    0.0000 C   0  0  0  0  0  0  0  0  0  0  0  0
    4.9131    2.7416    0.0000 C   0  0  0  0  0  0  0  0  0  0  0  0
    4.4131    1.8756    0.0000 C   0  0  0  0  0  0  0  0  0  0  0  0
    3.3304    3.0780    0.0000 C   0  0  0  0  0  0  0  0  0  0  0  0
    4.8198    0.9621    0.0000 C   0  0  0  0  0  0  0  0  0  0  0  0
    5.6108    5.7501    0.0000 C   0  0  0  0  0  0  0  0  0  0  0  0
    3.9166    6.1102    0.0000 C   0  0  0  0  0  0  0  0  0  0  0  0
    4.2320    0.1531    0.0000 C   0  0  0  0  0  0  0  0  0  0  0  0
    3.7320   -1.3858    0.0000 C   0  0  0  0  0  0  0  0  0  0  0  0
    3.7320   -2.3858    0.0000 C   0  0  0  0  0  0  0  0  0  0  0  0
    3.2320    0.1531    0.0000 C   0  0  0  0  0  0  0  0  0  0  0  0
    2.9230   -0.7980    0.0000 C   0  0  0  0  0  0  0  0  0  0  0  0
    4.5981   -2.8858    0.0000 C   0  0  0  0  0  0  0  0  0  0  0  0
    2.8660   -2.8858    0.0000 C   0  0  0  0  0  0  0  0  0  0  0  0
    3.7320   -4.3858    0.0000 C   0  0  0  0  0  0  0  0  0  0  0  0
    4.5981   -3.8858    0.0000 C   0  0  0  0  0  0  0  0  0  0  0  0
    2.8660   -3.8858    0.0000 C   0  0  0  0  0  0  0  0  0  0  0  0
    3.7320   -5.3858    0.0000 C   0  0  0  0  0  0  0  0  0  0  0  0
    2.8660   -6.8858    0.0000 C   0  0  0  0  0  0  0  0  0  0  0  0
    2.0000   -7.3858    0.0000 C   0  0  0  0  0  0  0  0  0  0  0  0
    3.8622    4.2713    0.0000 H   0  0  0  0  0  0  0  0  0  0  0  0
    3.1339    5.3643    0.0000 H   0  0  0  0  0  0  0  0  0  0  0  0
    3.3802    4.6063    0.0000 H   0  0  0  0  0  0  0  0  0  0  0  0
    5.4364    0.8973    0.0000 H   0  0  0  0  0  0  0  0  0  0  0  0
    6.2173    5.6212    0.0000 H   0  0  0  0  0  0  0  0  0  0  0  0
    5.7398    6.3566    0.0000 H   0  0  0  0  0  0  0  0  0  0  0  0
    5.0044    5.8790    0.0000 H   0  0  0  0  0  0  0  0  0  0  0  0
    2.8676    0.6546    0.0000 H   0  0  0  0  0  0  0  0  0  0  0  0
    2.3334   -0.9896    0.0000 H   0  0  0  0  0  0  0  0  0  0  0  0
    5.1350   -2.5758    0.0000 H   0  0  0  0  0  0  0  0  0  0  0  0
    2.3291   -2.5758    0.0000 H   0  0  0  0  0  0  0  0  0  0  0  0
    5.1350   -4.1958    0.0000 H   0  0  0  0  0  0  0  0  0  0  0  0
    2.3291   -4.1958    0.0000 H   0  0  0  0  0  0  0  0  0  0  0  0
    3.3024    7.3858    0.0000 H   0  0  0  0  0  0  0  0  0  0  0  0
    3.0781   -7.4684    0.0000 H   0  0  0  0  0  0  0  0  0  0  0  0
    3.4766   -6.7781    0.0000 H   0  0  0  0  0  0  0  0  0  0  0  0
    1.6900   -6.8489    0.0000 H   0  0  0  0  0  0  0  0  0  0  0  0
    1.4631   -7.6958    0.0000 H   0  0  0  0  0  0  0  0  0  0  0  0
    2.3100   -7.9227    0.0000 H   0  0  0  0  0  0  0  0  0  0  0  0
  1 15  1  0  0  0  0
  1 16  1  0  0  0  0
  2 16  2  0  0  0  0
  3 20  1  0  0  0  0
  3 21  1  0  0  0  0
  4 13  2  0  0  0  0
  5 14  2  0  0  0  0
  6 19  1  0  0  0  0
  6 46  1  0  0  0  0
  7 19  2  0  0  0  0
  8 30  1  0  0  0  0
  8 31  1  0  0  0  0
  9 30  2  0  0  0  0
 10 11  1  0  0  0  0
 10 14  1  0  0  0  0
 10 16  1  0  0  0  0
 11 12  1  0  0  0  0
 11 13  1  0  0  0  0
 11 33  1  0  0  0  0
 12 19  1  0  0  0  0
 12 34  1  0  0  0  0
 12 35  1  0  0  0  0
 13 18  1  0  0  0  0
 14 15  1  0  0  0  0
 15 17  2  0  0  0  0
 17 20  1  0  0  0  0
 17 36  1  0  0  0  0
 18 37  1  0  0  0  0
 18 38  1  0  0  0  0
 18 39  1  0  0  0  0
 20 23  2  0  0  0  0
 21 22  1  0  0  0  0
 21 24  2  0  0  0  0
 22 25  2  0  0  0  0
 22 26  1  0  0  0  0
 23 24  1  0  0  0  0
 23 40  1  0  0  0  0
 24 41  1  0  0  0  0
 25 28  1  0  0  0  0
 25 42  1  0  0  0  0
 26 29  2  0  0  0  0
 26 43  1  0  0  0  0
 27 28  2  0  0  0  0
 27 29  1  0  0  0  0
 27 30  1  0  0  0  0
 28 44  1  0  0  0  0
 29 45  1  0  0  0  0
 31 32  1  0  0  0  0
 31 47  1  0  0  0  0
 31 48  1  0  0  0  0
 32 49  1  0  0  0  0
 32 50  1  0  0  0  0
 32 51  1  0  0  0  0
M  END
> <PUBCHEM_COMPOUND_CID>
71718392

> <PUBCHEM_COMPOUND_CANONICALIZED>
1

> <PUBCHEM_CACTVS_COMPLEXITY>
819

> <PUBCHEM_CACTVS_HBOND_ACCEPTOR>
9

> <PUBCHEM_CACTVS_HBOND_DONOR>
1

> <PUBCHEM_CACTVS_ROTATABLE_BOND>
9

> <PUBCHEM_CACTVS_SUBSKEYS>
AAADceB6OABgAAAAAAAAAAAAAAAAAWJAAAAwAAAAAAAAAAABwAAAHgQACAAADCzh2AYyDIMABkiMAqHSGACCCABkIBgIiAGOCMgMJjqENTqGeSCmxhGIqYeLyPCOQAAAAAAAAACAAAAAAAAAAAAAAAAAAA==

> <PUBCHEM_IUPAC_OPENEYE_NAME>
3-[(5Z)-5-[[5-(4-ethoxycarbonylphenyl)-2-furyl]methylene]-4-oxo-2-thioxo-thiazolidin-3-yl]-4-oxo-pentanoic acid

> <PUBCHEM_IUPAC_CAS_NAME>
3-[(5Z)-5-[[5-(4-ethoxycarbonylphenyl)-2-furanyl]methylidene]-4-oxo-2-sulfanylidene-3-thiazolidinyl]-4-oxopentanoic acid

> <PUBCHEM_IUPAC_NAME>
3-[(5Z)-5-[[5-(4-ethoxycarbonylphenyl)furan-2-yl]methylidene]-4-oxo-2-sulfanylidene-1,3-thiazolidin-3-yl]-4-oxopentanoic acid

> <PUBCHEM_IUPAC_SYSTEMATIC_NAME>
3-[(5Z)-5-[[5-(4-ethoxycarbonylphenyl)furan-2-yl]methylidene]-4-oxidanylidene-2-sulfanylidene-1,3-thiazolidin-3-yl]-4-oxidanylidene-pentanoic acid

> <PUBCHEM_IUPAC_TRADITIONAL_NAME>
3-[(5Z)-5-[[5-(4-carbethoxyphenyl)-2-furyl]methylene]-4-keto-2-thioxo-thiazolidin-3-yl]-4-keto-valeric acid

> <PUBCHEM_IUPAC_INCHI>
InChI=1S/C22H19NO7S2/c1-3-29-21(28)14-6-4-13(5-7-14)17-9-8-15(30-17)10-18-20(27)23(22(31)32-18)16(12(2)24)11-19(25)26/h4-10,16H,3,11H2,1-2H3,(H,25,26)/b18-10-

> <PUBCHEM_IUPAC_INCHIKEY>
RRJCLIOMNLWJNQ-ZDLGFXPLSA-N

> <PUBCHEM_XLOGP3_AA>
3.2

> <PUBCHEM_EXACT_MASS>
473.06

> <PUBCHEM_MOLECULAR_FORMULA>
C22H19NO7S2

> <PUBCHEM_MOLECULAR_WEIGHT>
473.514

> <PUBCHEM_OPENEYE_CAN_SMILES>
CCOC(=O)C1=CC=C(C=C1)C2=CC=C(O2)C=C3C(=O)N(C(=S)S3)C(CC(=O)O)C(=O)C

> <PUBCHEM_OPENEYE_ISO_SMILES>
CCOC(=O)C1=CC=C(C=C1)C2=CC=C(O2)/C=C\3/C(=O)N(C(=S)S3)C(CC(=O)O)C(=O)C

> <PUBCHEM_CACTVS_TPSA>
172

> <PUBCHEM_MONOISOTOPIC_WEIGHT>
473.06

> <PUBCHEM_TOTAL_CHARGE>
0

> <PUBCHEM_HEAVY_ATOM_COUNT>
32

> <PUBCHEM_ATOM_DEF_STEREO_COUNT>
0

> <PUBCHEM_ATOM_UDEF_STEREO_COUNT>
1

> <PUBCHEM_BOND_DEF_STEREO_COUNT>
1

> <PUBCHEM_BOND_UDEF_STEREO_COUNT>
0

> <PUBCHEM_ISOTOPIC_ATOM_COUNT>
0

> <PUBCHEM_COMPONENT_COUNT>
1

> <PUBCHEM_CACTVS_TAUTO_COUNT>
3

> <PUBCHEM_COORDINATE_TYPE>
1
5
255

> <PUBCHEM_BONDANNOTATIONS>
11  12  3
20  23  8
21  24  8
22  25  8
22  26  8
23  24  8
25  28  8
26  29  8
27  28  8
27  29  8
3  20  8
3  21  8

$$$$
1205717
  -OEChem-11021604552D

 37 39  0     0  0  0  0  0  0999 V2000
    2.4435   -3.8858    0.0000 Cl  0  0  0  0  0  0  0  0  0  0  0  0
    4.4727    0.5835    0.0000 S   0  0  0  0  0  0  0  0  0  0  0  0
    5.4432    2.0780    0.0000 S   0  0  0  0  0  0  0  0  0  0  0  0
    3.3666   -2.2980    0.0000 O   0  0  0  0  0  0  0  0  0  0  0  0
    2.0000    1.3462    0.0000 O   0  0  0  0  0  0  0  0  0  0  0  0
    4.7341    5.2793    0.0000 O   0  0  0  0  0  0  0  0  0  0  0  0
    3.0399    4.9192    0.0000 O   0  0  0  0  0  0  0  0  0  0  0  0
    3.6636    1.9848    0.0000 N   0  0  0  0  0  0  0  0  0  0  0  0
    3.4557    2.9629    0.0000 C   0  0  0  0  0  0  0  0  0  0  0  0
    2.9945    1.2416    0.0000 C   0  0  0  0  0  0  0  0  0  0  0  0
    3.4945    0.3756    0.0000 C   0  0  0  0  0  0  0  0  0  0  0  0
    4.1989    3.6321    0.0000 C   0  0  0  0  0  0  0  0  0  0  0  0
    4.5772    1.5780    0.0000 C   0  0  0  0  0  0  0  0  0  0  0  0
    3.6756   -1.3470    0.0000 C   0  0  0  0  0  0  0  0  0  0  0  0
    3.0878   -0.5379    0.0000 C   0  0  0  0  0  0  0  0  0  0  0  0
    4.1756   -2.8858    0.0000 C   0  0  0  0  0  0  0  0  0  0  0  0
    4.1756   -3.8858    0.0000 C   0  0  0  0  0  0  0  0  0  0  0  0
    4.6756   -1.3470    0.0000 C   0  0  0  0  0  0  0  0  0  0  0  0
    4.9846   -2.2980    0.0000 C   0  0  0  0  0  0  0  0  0  0  0  0
    3.9910    4.6102    0.0000 C   0  0  0  0  0  0  0  0  0  0  0  0
    3.3096   -4.3858    0.0000 C   0  0  0  0  0  0  0  0  0  0  0  0
    5.0416   -4.3858    0.0000 C   0  0  0  0  0  0  0  0  0  0  0  0
    3.3096   -5.3858    0.0000 C   0  0  0  0  0  0  0  0  0  0  0  0
    5.0416   -5.3858    0.0000 C   0  0  0  0  0  0  0  0  0  0  0  0
    4.1756   -5.8858    0.0000 C   0  0  0  0  0  0  0  0  0  0  0  0
    3.1272    3.4887    0.0000 H   0  0  0  0  0  0  0  0  0  0  0  0
    2.8809    2.7307    0.0000 H   0  0  0  0  0  0  0  0  0  0  0  0
    4.5274    3.1063    0.0000 H   0  0  0  0  0  0  0  0  0  0  0  0
    4.7737    3.8643    0.0000 H   0  0  0  0  0  0  0  0  0  0  0  0
    2.4712   -0.6027    0.0000 H   0  0  0  0  0  0  0  0  0  0  0  0
    5.0400   -0.8454    0.0000 H   0  0  0  0  0  0  0  0  0  0  0  0
    5.5742   -2.4896    0.0000 H   0  0  0  0  0  0  0  0  0  0  0  0
    5.5785   -4.0758    0.0000 H   0  0  0  0  0  0  0  0  0  0  0  0
    2.7726   -5.6958    0.0000 H   0  0  0  0  0  0  0  0  0  0  0  0
    5.5785   -5.6958    0.0000 H   0  0  0  0  0  0  0  0  0  0  0  0
    4.1756   -6.5058    0.0000 H   0  0  0  0  0  0  0  0  0  0  0  0
    4.6052    5.8858    0.0000 H   0  0  0  0  0  0  0  0  0  0  0  0
  1 21  1  0  0  0  0
  2 11  1  0  0  0  0
  2 13  1  0  0  0  0
  3 13  2  0  0  0  0
  4 14  1  0  0  0  0
  4 16  1  0  0  0  0
  5 10  2  0  0  0  0
  6 20  1  0  0  0  0
  6 37  1  0  0  0  0
  7 20  2  0  0  0  0
  8  9  1  0  0  0  0
  8 10  1  0  0  0  0
  8 13  1  0  0  0  0
  9 12  1  0  0  0  0
  9 26  1  0  0  0  0
  9 27  1  0  0  0  0
 10 11  1  0  0  0  0
 11 15  2  0  0  0  0
 12 20  1  0  0  0  0
 12 28  1  0  0  0  0
 12 29  1  0  0  0  0
 14 15  1  0  0  0  0
 14 18  2  0  0  0  0
 15 30  1  0  0  0  0
 16 17  1  0  0  0  0
 16 19  2  0  0  0  0
 17 21  1  0  0  0  0
 17 22  2  0  0  0  0
 18 19  1  0  0  0  0
 18 31  1  0  0  0  0
 19 32  1  0  0  0  0
 21 23  2  0  0  0  0
 22 24  1  0  0  0  0
 22 33  1  0  0  0  0
 23 25  1  0  0  0  0
 23 34  1  0  0  0  0
 24 25  2  0  0  0  0
 24 35  1  0  0  0  0
 25 36  1  0  0  0  0
M  END
> <PUBCHEM_COMPOUND_CID>
1205717

> <PUBCHEM_COMPOUND_CANONICALIZED>
1

> <PUBCHEM_CACTVS_COMPLEXITY>
597

> <PUBCHEM_CACTVS_HBOND_ACCEPTOR>
6

> <PUBCHEM_CACTVS_HBOND_DONOR>
1

> <PUBCHEM_CACTVS_ROTATABLE_BOND>
5

> <PUBCHEM_CACTVS_SUBSKEYS>
AAADccB6OABkAAAAAAAAAAAAAAAAAWJAAAAwAAAAAAAAAAABwAAAHgYACAAADAbB2CQwDIMABkiMAqHSGACCCABkJRgIiAEOCsgMJjqFNxqGeSCmxhGIrYeIyPCOAAAAAAABAAAAAAAAAAIAAAAAAAAAAA==

> <PUBCHEM_IUPAC_OPENEYE_NAME>
3-[(5Z)-5-[[5-(2-chlorophenyl)-2-furyl]methylene]-4-oxo-2-thioxo-thiazolidin-3-yl]propanoic acid

> <PUBCHEM_IUPAC_CAS_NAME>
3-[(5Z)-5-[[5-(2-chlorophenyl)-2-furanyl]methylidene]-4-oxo-2-sulfanylidene-3-thiazolidinyl]propanoic acid

> <PUBCHEM_IUPAC_NAME>
3-[(5Z)-5-[[5-(2-chlorophenyl)furan-2-yl]methylidene]-4-oxo-2-sulfanylidene-1,3-thiazolidin-3-yl]propanoic acid

> <PUBCHEM_IUPAC_SYSTEMATIC_NAME>
3-[(5Z)-5-[[5-(2-chlorophenyl)furan-2-yl]methylidene]-4-oxidanylidene-2-sulfanylidene-1,3-thiazolidin-3-yl]propanoic acid

> <PUBCHEM_IUPAC_TRADITIONAL_NAME>
3-[(5Z)-5-[[5-(2-chlorophenyl)-2-furyl]methylene]-4-keto-2-thioxo-thiazolidin-3-yl]propionic acid

> <PUBCHEM_IUPAC_INCHI>
InChI=1S/C17H12ClNO4S2/c18-12-4-2-1-3-11(12)13-6-5-10(23-13)9-14-16(22)19(17(24)25-14)8-7-15(20)21/h1-6,9H,7-8H2,(H,20,21)/b14-9-

> <PUBCHEM_IUPAC_INCHIKEY>
GOTSHXUIWCSXBV-ZROIWOOFSA-N

> <PUBCHEM_XLOGP3_AA>
3.9

> <PUBCHEM_EXACT_MASS>
392.99

> <PUBCHEM_MOLECULAR_FORMULA>
C17H12ClNO4S2

> <PUBCHEM_MOLECULAR_WEIGHT>
393.856

> <PUBCHEM_OPENEYE_CAN_SMILES>
C1=CC=C(C(=C1)C2=CC=C(O2)C=C3C(=O)N(C(=S)S3)CCC(=O)O)Cl

> <PUBCHEM_OPENEYE_ISO_SMILES>
C1=CC=C(C(=C1)C2=CC=C(O2)/C=C\3/C(=O)N(C(=S)S3)CCC(=O)O)Cl

> <PUBCHEM_CACTVS_TPSA>
128

> <PUBCHEM_MONOISOTOPIC_WEIGHT>
392.99

> <PUBCHEM_TOTAL_CHARGE>
0

> <PUBCHEM_HEAVY_ATOM_COUNT>
25

> <PUBCHEM_ATOM_DEF_STEREO_COUNT>
0

> <PUBCHEM_ATOM_UDEF_STEREO_COUNT>
0

> <PUBCHEM_BOND_DEF_STEREO_COUNT>
1

> <PUBCHEM_BOND_UDEF_STEREO_COUNT>
0

> <PUBCHEM_ISOTOPIC_ATOM_COUNT>
0

> <PUBCHEM_COMPONENT_COUNT>
1

> <PUBCHEM_CACTVS_TAUTO_COUNT>
1

> <PUBCHEM_COORDINATE_TYPE>
1
5
255

> <PUBCHEM_BONDANNOTATIONS>
14  18  8
16  19  8
17  21  8
17  22  8
18  19  8
21  23  8
22  24  8
23  25  8
24  25  8
4  14  8
4  16  8

$$$$
6509437
  -OEChem-11021604552D

 45 47  0     1  0  0  0  0  0999 V2000
    2.9705    1.7639    0.0000 S   0  0  0  0  0  0  0  0  0  0  0  0
    2.0000    3.2584    0.0000 S   0  0  0  0  0  0  0  0  0  0  0  0
    3.4522    5.7906    0.0000 O   0  0  0  0  0  0  0  0  0  0  0  0
    4.0767   -1.1176    0.0000 O   0  0  0  0  0  0  0  0  0  0  0  0
    5.4432    2.5265    0.0000 O   0  0  0  0  0  0  0  0  0  0  0  0
    2.2933    4.5034    0.0000 O   0  0  0  0  0  0  0  0  0  0  0  0
    2.4016   -6.2054    0.0000 O   0  5  0  0  0  0  0  0  0  0  0  0
    4.1337   -6.2054    0.0000 O   0  0  0  0  0  0  0  0  0  0  0  0
    3.7796    3.1651    0.0000 N   0  0  0  0  0  0  0  0  0  0  0  0
    3.2676   -5.7054    0.0000 N   0  3  0  0  0  0  0  0  0  0  0  0
    3.9875    4.1433    0.0000 C   0  0  3  0  0  0  0  0  0  0  0  0
    4.9385    4.4523    0.0000 C   0  0  0  0  0  0  0  0  0  0  0  0
    5.1464    5.4305    0.0000 C   0  0  0  0  0  0  0  0  0  0  0  0
    4.4487    2.4220    0.0000 C   0  0  0  0  0  0  0  0  0  0  0  0
    3.2443    4.8124    0.0000 C   0  0  0  0  0  0  0  0  0  0  0  0
    2.8660    2.7584    0.0000 C   0  0  0  0  0  0  0  0  0  0  0  0
    3.9487    1.5560    0.0000 C   0  0  0  0  0  0  0  0  0  0  0  0
    6.0975    5.7395    0.0000 C   0  0  0  0  0  0  0  0  0  0  0  0
    4.3554    0.6424    0.0000 C   0  0  0  0  0  0  0  0  0  0  0  0
    3.7676   -0.1666    0.0000 C   0  0  0  0  0  0  0  0  0  0  0  0
    3.2676   -1.7054    0.0000 C   0  0  0  0  0  0  0  0  0  0  0  0
    2.7676   -0.1666    0.0000 C   0  0  0  0  0  0  0  0  0  0  0  0
    3.2676   -2.7054    0.0000 C   0  0  0  0  0  0  0  0  0  0  0  0
    2.4586   -1.1176    0.0000 C   0  0  0  0  0  0  0  0  0  0  0  0
    2.4016   -3.2054    0.0000 C   0  0  0  0  0  0  0  0  0  0  0  0
    4.1337   -3.2054    0.0000 C   0  0  0  0  0  0  0  0  0  0  0  0
    2.4016   -4.2054    0.0000 C   0  0  0  0  0  0  0  0  0  0  0  0
    4.1337   -4.2054    0.0000 C   0  0  0  0  0  0  0  0  0  0  0  0
    3.2676   -4.7054    0.0000 C   0  0  0  0  0  0  0  0  0  0  0  0
    4.4482    3.7284    0.0000 H   0  0  0  0  0  0  0  0  0  0  0  0
    5.0248    3.8383    0.0000 H   0  0  0  0  0  0  0  0  0  0  0  0
    5.5582    4.4307    0.0000 H   0  0  0  0  0  0  0  0  0  0  0  0
    5.0602    6.0444    0.0000 H   0  0  0  0  0  0  0  0  0  0  0  0
    4.5268    5.4521    0.0000 H   0  0  0  0  0  0  0  0  0  0  0  0
    6.2891    5.1498    0.0000 H   0  0  0  0  0  0  0  0  0  0  0  0
    6.6872    5.9311    0.0000 H   0  0  0  0  0  0  0  0  0  0  0  0
    5.9059    6.3291    0.0000 H   0  0  0  0  0  0  0  0  0  0  0  0
    4.9720    0.5776    0.0000 H   0  0  0  0  0  0  0  0  0  0  0  0
    2.4032    0.3350    0.0000 H   0  0  0  0  0  0  0  0  0  0  0  0
    1.8690   -1.3092    0.0000 H   0  0  0  0  0  0  0  0  0  0  0  0
    2.9915    6.2054    0.0000 H   0  0  0  0  0  0  0  0  0  0  0  0
    1.8647   -2.8954    0.0000 H   0  0  0  0  0  0  0  0  0  0  0  0
    4.6706   -2.8954    0.0000 H   0  0  0  0  0  0  0  0  0  0  0  0
    1.8647   -4.5154    0.0000 H   0  0  0  0  0  0  0  0  0  0  0  0
    4.6706   -4.5154    0.0000 H   0  0  0  0  0  0  0  0  0  0  0  0
  1 16  1  0  0  0  0
  1 17  1  0  0  0  0
  2 16  2  0  0  0  0
  3 15  1  0  0  0  0
  3 41  1  0  0  0  0
  4 20  1  0  0  0  0
  4 21  1  0  0  0  0
  5 14  2  0  0  0  0
  6 15  2  0  0  0  0
  7 10  1  0  0  0  0
  8 10  2  0  0  0  0
  9 11  1  0  0  0  0
  9 14  1  0  0  0  0
  9 16  1  0  0  0  0
 10 29  1  0  0  0  0
 11 12  1  0  0  0  0
 11 15  1  0  0  0  0
 11 30  1  0  0  0  0
 12 13  1  0  0  0  0
 12 31  1  0  0  0  0
 12 32  1  0  0  0  0
 13 18  1  0  0  0  0
 13 33  1  0  0  0  0
 13 34  1  0  0  0  0
 14 17  1  0  0  0  0
 17 19  2  0  0  0  0
 18 35  1  0  0  0  0
 18 36  1  0  0  0  0
 18 37  1  0  0  0  0
 19 20  1  0  0  0  0
 19 38  1  0  0  0  0
 20 22  2  0  0  0  0
 21 23  1  0  0  0  0
 21 24  2  0  0  0  0
 22 24  1  0  0  0  0
 22 39  1  0  0  0  0
 23 25  2  0  0  0  0
 23 26  1  0  0  0  0
 24 40  1  0  0  0  0
 25 27  1  0  0  0  0
 25 42  1  0  0  0  0
 26 28  2  0  0  0  0
 26 43  1  0  0  0  0
 27 29  2  0  0  0  0
 27 44  1  0  0  0  0
 28 29  1  0  0  0  0
 28 45  1  0  0  0  0
M  CHG  2   7  -1  10   1
M  END
> <PUBCHEM_COMPOUND_CID>
6509437

> <PUBCHEM_COMPOUND_CANONICALIZED>
1

> <PUBCHEM_CACTVS_COMPLEXITY>
714

> <PUBCHEM_CACTVS_HBOND_ACCEPTOR>
8

> <PUBCHEM_CACTVS_HBOND_DONOR>
1

> <PUBCHEM_CACTVS_ROTATABLE_BOND>
6

> <PUBCHEM_CACTVS_SUBSKEYS>
AAADceB7OABgAAAAAAAAAAAAAAAAAWJAAAAwAAAAAAAAAAABwAAAHgQECAAADCzB2AQyzIMQRkiNAqXSWwCCCABkIhgoiAGObMoOJjKEtbuGeSDkxhGY6YeY2fGeCAAAAAAAAAAQAAAAAAAAAAAAAAAAAA==

> <PUBCHEM_IUPAC_OPENEYE_NAME>
2-[(5Z)-5-[[5-(4-nitrophenyl)-2-furyl]methylene]-4-oxo-2-thioxo-thiazolidin-3-yl]pentanoic acid

> <PUBCHEM_IUPAC_CAS_NAME>
2-[(5Z)-5-[[5-(4-nitrophenyl)-2-furanyl]methylidene]-4-oxo-2-sulfanylidene-3-thiazolidinyl]pentanoic acid

> <PUBCHEM_IUPAC_NAME>
2-[(5Z)-5-[[5-(4-nitrophenyl)furan-2-yl]methylidene]-4-oxo-2-sulfanylidene-1,3-thiazolidin-3-yl]pentanoic acid

> <PUBCHEM_IUPAC_SYSTEMATIC_NAME>
2-[(5Z)-5-[[5-(4-nitrophenyl)furan-2-yl]methylidene]-4-oxidanylidene-2-sulfanylidene-1,3-thiazolidin-3-yl]pentanoic acid

> <PUBCHEM_IUPAC_TRADITIONAL_NAME>
2-[(5Z)-4-keto-5-[[5-(4-nitrophenyl)-2-furyl]methylene]-2-thioxo-thiazolidin-3-yl]valeric acid

> <PUBCHEM_IUPAC_INCHI>
InChI=1S/C19H16N2O6S2/c1-2-3-14(18(23)24)20-17(22)16(29-19(20)28)10-13-8-9-15(27-13)11-4-6-12(7-5-11)21(25)26/h4-10,14H,2-3H2,1H3,(H,23,24)/b16-10-

> <PUBCHEM_IUPAC_INCHIKEY>
GODLRAGMYVGEGJ-YBEGLDIGSA-N

> <PUBCHEM_XLOGP3_AA>
4.4

> <PUBCHEM_EXACT_MASS>
432.045

> <PUBCHEM_MOLECULAR_FORMULA>
C19H16N2O6S2

> <PUBCHEM_MOLECULAR_WEIGHT>
432.465

> <PUBCHEM_OPENEYE_CAN_SMILES>
CCCC(C(=O)O)N1C(=O)C(=CC2=CC=C(O2)C3=CC=C(C=C3)[N+](=O)[O-])SC1=S

> <PUBCHEM_OPENEYE_ISO_SMILES>
CCCC(C(=O)O)N1C(=O)/C(=C/C2=CC=C(O2)C3=CC=C(C=C3)[N+](=O)[O-])/SC1=S

> <PUBCHEM_CACTVS_TPSA>
174

> <PUBCHEM_MONOISOTOPIC_WEIGHT>
432.045

> <PUBCHEM_TOTAL_CHARGE>
0

> <PUBCHEM_HEAVY_ATOM_COUNT>
29

> <PUBCHEM_ATOM_DEF_STEREO_COUNT>
0

> <PUBCHEM_ATOM_UDEF_STEREO_COUNT>
1

> <PUBCHEM_BOND_DEF_STEREO_COUNT>
1

> <PUBCHEM_BOND_UDEF_STEREO_COUNT>
0

> <PUBCHEM_ISOTOPIC_ATOM_COUNT>
0

> <PUBCHEM_COMPONENT_COUNT>
1

> <PUBCHEM_CACTVS_TAUTO_COUNT>
1

> <PUBCHEM_COORDINATE_TYPE>
1
5
255

> <PUBCHEM_BONDANNOTATIONS>
11  12  3
20  22  8
21  24  8
22  24  8
23  25  8
23  26  8
25  27  8
26  28  8
27  29  8
28  29  8
4  20  8
4  21  8

$$$$
1205453
  -OEChem-11021604552D

 34 36  0     0  0  0  0  0  0999 V2000
    2.4435   -3.4554    0.0000 Cl  0  0  0  0  0  0  0  0  0  0  0  0
    4.4727    1.0139    0.0000 S   0  0  0  0  0  0  0  0  0  0  0  0
    5.4432    2.5084    0.0000 S   0  0  0  0  0  0  0  0  0  0  0  0
    3.3666   -1.8676    0.0000 O   0  0  0  0  0  0  0  0  0  0  0  0
    2.0000    1.7765    0.0000 O   0  0  0  0  0  0  0  0  0  0  0  0
    3.9910    5.0406    0.0000 O   0  0  0  0  0  0  0  0  0  0  0  0
    5.1499    3.7534    0.0000 O   0  0  0  0  0  0  0  0  0  0  0  0
    3.6636    2.4151    0.0000 N   0  0  0  0  0  0  0  0  0  0  0  0
    3.4945    0.8060    0.0000 C   0  0  0  0  0  0  0  0  0  0  0  0
    3.6756   -0.9166    0.0000 C   0  0  0  0  0  0  0  0  0  0  0  0
    2.9945    1.6720    0.0000 C   0  0  0  0  0  0  0  0  0  0  0  0
    4.1756   -2.4554    0.0000 C   0  0  0  0  0  0  0  0  0  0  0  0
    3.0878   -0.1076    0.0000 C   0  0  0  0  0  0  0  0  0  0  0  0
    3.4557    3.3933    0.0000 C   0  0  0  0  0  0  0  0  0  0  0  0
    4.1756   -3.4554    0.0000 C   0  0  0  0  0  0  0  0  0  0  0  0
    4.6756   -0.9166    0.0000 C   0  0  0  0  0  0  0  0  0  0  0  0
    4.9846   -1.8676    0.0000 C   0  0  0  0  0  0  0  0  0  0  0  0
    4.5772    2.0084    0.0000 C   0  0  0  0  0  0  0  0  0  0  0  0
    3.3096   -3.9554    0.0000 C   0  0  0  0  0  0  0  0  0  0  0  0
    5.0416   -3.9554    0.0000 C   0  0  0  0  0  0  0  0  0  0  0  0
    4.1989    4.0624    0.0000 C   0  0  0  0  0  0  0  0  0  0  0  0
    3.3096   -4.9554    0.0000 C   0  0  0  0  0  0  0  0  0  0  0  0
    5.0416   -4.9554    0.0000 C   0  0  0  0  0  0  0  0  0  0  0  0
    4.1756   -5.4554    0.0000 C   0  0  0  0  0  0  0  0  0  0  0  0
    2.4712   -0.1724    0.0000 H   0  0  0  0  0  0  0  0  0  0  0  0
    3.1272    3.9191    0.0000 H   0  0  0  0  0  0  0  0  0  0  0  0
    2.8809    3.1610    0.0000 H   0  0  0  0  0  0  0  0  0  0  0  0
    5.0400   -0.4150    0.0000 H   0  0  0  0  0  0  0  0  0  0  0  0
    5.5742   -2.0592    0.0000 H   0  0  0  0  0  0  0  0  0  0  0  0
    5.5785   -3.6454    0.0000 H   0  0  0  0  0  0  0  0  0  0  0  0
    2.7726   -5.2654    0.0000 H   0  0  0  0  0  0  0  0  0  0  0  0
    5.5785   -5.2654    0.0000 H   0  0  0  0  0  0  0  0  0  0  0  0
    4.1756   -6.0754    0.0000 H   0  0  0  0  0  0  0  0  0  0  0  0
    4.4517    5.4554    0.0000 H   0  0  0  0  0  0  0  0  0  0  0  0
  1 19  1  0  0  0  0
  2  9  1  0  0  0  0
  2 18  1  0  0  0  0
  3 18  2  0  0  0  0
  4 10  1  0  0  0  0
  4 12  1  0  0  0  0
  5 11  2  0  0  0  0
  6 21  1  0  0  0  0
  6 34  1  0  0  0  0
  7 21  2  0  0  0  0
  8 11  1  0  0  0  0
  8 14  1  0  0  0  0
  8 18  1  0  0  0  0
  9 11  1  0  0  0  0
  9 13  2  0  0  0  0
 10 13  1  0  0  0  0
 10 16  2  0  0  0  0
 12 15  1  0  0  0  0
 12 17  2  0  0  0  0
 13 25  1  0  0  0  0
 14 21  1  0  0  0  0
 14 26  1  0  0  0  0
 14 27  1  0  0  0  0
 15 19  1  0  0  0  0
 15 20  2  0  0  0  0
 16 17  1  0  0  0  0
 16 28  1  0  0  0  0
 17 29  1  0  0  0  0
 19 22  2  0  0  0  0
 20 23  1  0  0  0  0
 20 30  1  0  0  0  0
 22 24  1  0  0  0  0
 22 31  1  0  0  0  0
 23 24  2  0  0  0  0
 23 32  1  0  0  0  0
 24 33  1  0  0  0  0
M  END
> <PUBCHEM_COMPOUND_CID>
1205453

> <PUBCHEM_COMPOUND_CANONICALIZED>
1

> <PUBCHEM_CACTVS_COMPLEXITY>
582

> <PUBCHEM_CACTVS_HBOND_ACCEPTOR>
6

> <PUBCHEM_CACTVS_HBOND_DONOR>
1

> <PUBCHEM_CACTVS_ROTATABLE_BOND>
4

> <PUBCHEM_CACTVS_SUBSKEYS>
AAADccB6OABkAAAAAAAAAAAAAAAAAWJAAAAwAAAAAAAAAAABwAAAHgYACAAADAbB2CQwDIMABkiMAqHSGACCCABkJRgIiAGOCsgOJjKFNzqCOSCkxhGYrYeIyPCOAAAAAAABAAAAAAAAAAIAAAAAAAAAAA==

> <PUBCHEM_IUPAC_OPENEYE_NAME>
2-[(5Z)-5-[[5-(2-chlorophenyl)-2-furyl]methylene]-4-oxo-2-thioxo-thiazolidin-3-yl]acetic acid

> <PUBCHEM_IUPAC_CAS_NAME>
2-[(5Z)-5-[[5-(2-chlorophenyl)-2-furanyl]methylidene]-4-oxo-2-sulfanylidene-3-thiazolidinyl]acetic acid

> <PUBCHEM_IUPAC_NAME>
2-[(5Z)-5-[[5-(2-chlorophenyl)furan-2-yl]methylidene]-4-oxo-2-sulfanylidene-1,3-thiazolidin-3-yl]acetic acid

> <PUBCHEM_IUPAC_SYSTEMATIC_NAME>
2-[(5Z)-5-[[5-(2-chlorophenyl)furan-2-yl]methylidene]-4-oxidanylidene-2-sulfanylidene-1,3-thiazolidin-3-yl]ethanoic acid

> <PUBCHEM_IUPAC_TRADITIONAL_NAME>
2-[(5Z)-5-[[5-(2-chlorophenyl)-2-furyl]methylene]-4-keto-2-thioxo-thiazolidin-3-yl]acetic acid

> <PUBCHEM_IUPAC_INCHI>
InChI=1S/C16H10ClNO4S2/c17-11-4-2-1-3-10(11)12-6-5-9(22-12)7-13-15(21)18(8-14(19)20)16(23)24-13/h1-7H,8H2,(H,19,20)/b13-7-

> <PUBCHEM_IUPAC_INCHIKEY>
MHRABWCKJSVDSK-QPEQYQDCSA-N

> <PUBCHEM_XLOGP3_AA>
4

> <PUBCHEM_EXACT_MASS>
378.974

> <PUBCHEM_MOLECULAR_FORMULA>
C16H10ClNO4S2

> <PUBCHEM_MOLECULAR_WEIGHT>
379.829

> <PUBCHEM_OPENEYE_CAN_SMILES>
C1=CC=C(C(=C1)C2=CC=C(O2)C=C3C(=O)N(C(=S)S3)CC(=O)O)Cl

> <PUBCHEM_OPENEYE_ISO_SMILES>
C1=CC=C(C(=C1)C2=CC=C(O2)/C=C\3/C(=O)N(C(=S)S3)CC(=O)O)Cl

> <PUBCHEM_CACTVS_TPSA>
128

> <PUBCHEM_MONOISOTOPIC_WEIGHT>
378.974

> <PUBCHEM_TOTAL_CHARGE>
0

> <PUBCHEM_HEAVY_ATOM_COUNT>
24

> <PUBCHEM_ATOM_DEF_STEREO_COUNT>
0

> <PUBCHEM_ATOM_UDEF_STEREO_COUNT>
0

> <PUBCHEM_BOND_DEF_STEREO_COUNT>
1

> <PUBCHEM_BOND_UDEF_STEREO_COUNT>
0

> <PUBCHEM_ISOTOPIC_ATOM_COUNT>
0

> <PUBCHEM_COMPONENT_COUNT>
1

> <PUBCHEM_CACTVS_TAUTO_COUNT>
1

> <PUBCHEM_COORDINATE_TYPE>
1
5
255

> <PUBCHEM_BONDANNOTATIONS>
10  16  8
12  17  8
15  19  8
15  20  8
16  17  8
19  22  8
20  23  8
22  24  8
23  24  8
4  10  8
4  12  8

$$$$
7454869
  -OEChem-11021604552D

 34 36  0     0  0  0  0  0  0999 V2000
    4.4727    1.0139    0.0000 S   0  0  0  0  0  0  0  0  0  0  0  0
    5.4432    2.5084    0.0000 S   0  0  0  0  0  0  0  0  0  0  0  0
    2.4435   -3.4554    0.0000 F   0  0  0  0  0  0  0  0  0  0  0  0
    3.3666   -1.8676    0.0000 O   0  0  0  0  0  0  0  0  0  0  0  0
    2.0000    1.7765    0.0000 O   0  0  0  0  0  0  0  0  0  0  0  0
    3.9910    5.0406    0.0000 O   0  0  0  0  0  0  0  0  0  0  0  0
    5.1499    3.7534    0.0000 O   0  0  0  0  0  0  0  0  0  0  0  0
    3.6636    2.4151    0.0000 N   0  0  0  0  0  0  0  0  0  0  0  0
    3.4945    0.8060    0.0000 C   0  0  0  0  0  0  0  0  0  0  0  0
    3.6756   -0.9166    0.0000 C   0  0  0  0  0  0  0  0  0  0  0  0
    2.9945    1.6720    0.0000 C   0  0  0  0  0  0  0  0  0  0  0  0
    4.1756   -2.4554    0.0000 C   0  0  0  0  0  0  0  0  0  0  0  0
    3.0878   -0.1076    0.0000 C   0  0  0  0  0  0  0  0  0  0  0  0
    3.4557    3.3933    0.0000 C   0  0  0  0  0  0  0  0  0  0  0  0
    4.1756   -3.4554    0.0000 C   0  0  0  0  0  0  0  0  0  0  0  0
    4.5772    2.0084    0.0000 C   0  0  0  0  0  0  0  0  0  0  0  0
    4.6756   -0.9166    0.0000 C   0  0  0  0  0  0  0  0  0  0  0  0
    4.9846   -1.8676    0.0000 C   0  0  0  0  0  0  0  0  0  0  0  0
    3.3096   -3.9554    0.0000 C   0  0  0  0  0  0  0  0  0  0  0  0
    5.0416   -3.9554    0.0000 C   0  0  0  0  0  0  0  0  0  0  0  0
    4.1989    4.0624    0.0000 C   0  0  0  0  0  0  0  0  0  0  0  0
    3.3096   -4.9554    0.0000 C   0  0  0  0  0  0  0  0  0  0  0  0
    5.0416   -4.9554    0.0000 C   0  0  0  0  0  0  0  0  0  0  0  0
    4.1756   -5.4554    0.0000 C   0  0  0  0  0  0  0  0  0  0  0  0
    2.4712   -0.1724    0.0000 H   0  0  0  0  0  0  0  0  0  0  0  0
    3.1272    3.9191    0.0000 H   0  0  0  0  0  0  0  0  0  0  0  0
    2.8809    3.1610    0.0000 H   0  0  0  0  0  0  0  0  0  0  0  0
    5.0400   -0.4150    0.0000 H   0  0  0  0  0  0  0  0  0  0  0  0
    5.5742   -2.0592    0.0000 H   0  0  0  0  0  0  0  0  0  0  0  0
    5.5785   -3.6454    0.0000 H   0  0  0  0  0  0  0  0  0  0  0  0
    2.7726   -5.2654    0.0000 H   0  0  0  0  0  0  0  0  0  0  0  0
    5.5785   -5.2654    0.0000 H   0  0  0  0  0  0  0  0  0  0  0  0
    4.1756   -6.0754    0.0000 H   0  0  0  0  0  0  0  0  0  0  0  0
    4.4517    5.4554    0.0000 H   0  0  0  0  0  0  0  0  0  0  0  0
  1  9  1  0  0  0  0
  1 16  1  0  0  0  0
  2 16  2  0  0  0  0
  3 19  1  0  0  0  0
  4 10  1  0  0  0  0
  4 12  1  0  0  0  0
  5 11  2  0  0  0  0
  6 21  1  0  0  0  0
  6 34  1  0  0  0  0
  7 21  2  0  0  0  0
  8 11  1  0  0  0  0
  8 14  1  0  0  0  0
  8 16  1  0  0  0  0
  9 11  1  0  0  0  0
  9 13  2  0  0  0  0
 10 13  1  0  0  0  0
 10 17  2  0  0  0  0
 12 15  1  0  0  0  0
 12 18  2  0  0  0  0
 13 25  1  0  0  0  0
 14 21  1  0  0  0  0
 14 26  1  0  0  0  0
 14 27  1  0  0  0  0
 15 19  1  0  0  0  0
 15 20  2  0  0  0  0
 17 18  1  0  0  0  0
 17 28  1  0  0  0  0
 18 29  1  0  0  0  0
 19 22  2  0  0  0  0
 20 23  1  0  0  0  0
 20 30  1  0  0  0  0
 22 24  1  0  0  0  0
 22 31  1  0  0  0  0
 23 24  2  0  0  0  0
 23 32  1  0  0  0  0
 24 33  1  0  0  0  0
M  END
> <PUBCHEM_COMPOUND_CID>
7454869

> <PUBCHEM_COMPOUND_CANONICALIZED>
1

> <PUBCHEM_CACTVS_COMPLEXITY>
582

> <PUBCHEM_CACTVS_HBOND_ACCEPTOR>
7

> <PUBCHEM_CACTVS_HBOND_DONOR>
1

> <PUBCHEM_CACTVS_ROTATABLE_BOND>
4

> <PUBCHEM_CACTVS_SUBSKEYS>
AAADccB6OQBgAAAAAAAAAAAAAAAAAWJAAAAwAAAAAAAAAAABwAAAHwQACAAADATB2AwwDIMABkiMAqHSGACCCABkIBgIiAGOCMgOJjKENTqCOSCkxhGYqYeIyPCOAAAAAAAAAAAAAAAAAAAAAAAAAAAAAA==

> <PUBCHEM_IUPAC_OPENEYE_NAME>
2-[(5Z)-5-[[5-(2-fluorophenyl)-2-furyl]methylene]-4-oxo-2-thioxo-thiazolidin-3-yl]acetic acid

> <PUBCHEM_IUPAC_CAS_NAME>
2-[(5Z)-5-[[5-(2-fluorophenyl)-2-furanyl]methylidene]-4-oxo-2-sulfanylidene-3-thiazolidinyl]acetic acid

> <PUBCHEM_IUPAC_NAME>
2-[(5Z)-5-[[5-(2-fluorophenyl)furan-2-yl]methylidene]-4-oxo-2-sulfanylidene-1,3-thiazolidin-3-yl]acetic acid

> <PUBCHEM_IUPAC_SYSTEMATIC_NAME>
2-[(5Z)-5-[[5-(2-fluorophenyl)furan-2-yl]methylidene]-4-oxidanylidene-2-sulfanylidene-1,3-thiazolidin-3-yl]ethanoic acid

> <PUBCHEM_IUPAC_TRADITIONAL_NAME>
2-[(5Z)-5-[[5-(2-fluorophenyl)-2-furyl]methylene]-4-keto-2-thioxo-thiazolidin-3-yl]acetic acid

> <PUBCHEM_IUPAC_INCHI>
InChI=1S/C16H10FNO4S2/c17-11-4-2-1-3-10(11)12-6-5-9(22-12)7-13-15(21)18(8-14(19)20)16(23)24-13/h1-7H,8H2,(H,19,20)/b13-7-

> <PUBCHEM_IUPAC_INCHIKEY>
UIHHFGAFGCMKOT-QPEQYQDCSA-N

> <PUBCHEM_XLOGP3_AA>
3.4

> <PUBCHEM_EXACT_MASS>
363.004

> <PUBCHEM_MOLECULAR_FORMULA>
C16H10FNO4S2

> <PUBCHEM_MOLECULAR_WEIGHT>
363.377

> <PUBCHEM_OPENEYE_CAN_SMILES>
C1=CC=C(C(=C1)C2=CC=C(O2)C=C3C(=O)N(C(=S)S3)CC(=O)O)F

> <PUBCHEM_OPENEYE_ISO_SMILES>
C1=CC=C(C(=C1)C2=CC=C(O2)/C=C\3/C(=O)N(C(=S)S3)CC(=O)O)F

> <PUBCHEM_CACTVS_TPSA>
128

> <PUBCHEM_MONOISOTOPIC_WEIGHT>
363.004

> <PUBCHEM_TOTAL_CHARGE>
0

> <PUBCHEM_HEAVY_ATOM_COUNT>
24

> <PUBCHEM_ATOM_DEF_STEREO_COUNT>
0

> <PUBCHEM_ATOM_UDEF_STEREO_COUNT>
0

> <PUBCHEM_BOND_DEF_STEREO_COUNT>
1

> <PUBCHEM_BOND_UDEF_STEREO_COUNT>
0

> <PUBCHEM_ISOTOPIC_ATOM_COUNT>
0

> <PUBCHEM_COMPONENT_COUNT>
1

> <PUBCHEM_CACTVS_TAUTO_COUNT>
1

> <PUBCHEM_COORDINATE_TYPE>
1
5
255

> <PUBCHEM_BONDANNOTATIONS>
10  17  8
12  18  8
15  19  8
15  20  8
17  18  8
19  22  8
20  23  8
22  24  8
23  24  8
4  10  8
4  12  8

$$$$
5828227
  -OEChem-11021604552D

 40 42  0     0  0  0  0  0  0999 V2000
    2.4435   -4.2791    0.0000 Cl  0  0  0  0  0  0  0  0  0  0  0  0
    5.9076   -4.2791    0.0000 Cl  0  0  0  0  0  0  0  0  0  0  0  0
    4.4727    0.1902    0.0000 S   0  0  0  0  0  0  0  0  0  0  0  0
    5.4432    1.6848    0.0000 S   0  0  0  0  0  0  0  0  0  0  0  0
    3.3666   -2.6913    0.0000 O   0  0  0  0  0  0  0  0  0  0  0  0
    2.0000    0.9529    0.0000 O   0  0  0  0  0  0  0  0  0  0  0  0
    4.5262    5.8642    0.0000 O   0  0  0  0  0  0  0  0  0  0  0  0
    5.6852    4.5770    0.0000 O   0  0  0  0  0  0  0  0  0  0  0  0
    3.6636    1.5915    0.0000 N   0  0  0  0  0  0  0  0  0  0  0  0
    3.4557    2.5697    0.0000 C   0  0  0  0  0  0  0  0  0  0  0  0
    4.1989    3.2388    0.0000 C   0  0  0  0  0  0  0  0  0  0  0  0
    3.9910    4.2169    0.0000 C   0  0  0  0  0  0  0  0  0  0  0  0
    2.9945    0.8484    0.0000 C   0  0  0  0  0  0  0  0  0  0  0  0
    3.4945   -0.0177    0.0000 C   0  0  0  0  0  0  0  0  0  0  0  0
    4.5772    1.1848    0.0000 C   0  0  0  0  0  0  0  0  0  0  0  0
    3.0878   -0.9312    0.0000 C   0  0  0  0  0  0  0  0  0  0  0  0
    3.6756   -1.7402    0.0000 C   0  0  0  0  0  0  0  0  0  0  0  0
    4.1756   -3.2791    0.0000 C   0  0  0  0  0  0  0  0  0  0  0  0
    4.1756   -4.2791    0.0000 C   0  0  0  0  0  0  0  0  0  0  0  0
    4.6756   -1.7402    0.0000 C   0  0  0  0  0  0  0  0  0  0  0  0
    4.7341    4.8861    0.0000 C   0  0  0  0  0  0  0  0  0  0  0  0
    4.9846   -2.6913    0.0000 C   0  0  0  0  0  0  0  0  0  0  0  0
    3.3096   -4.7791    0.0000 C   0  0  0  0  0  0  0  0  0  0  0  0
    5.0416   -4.7791    0.0000 C   0  0  0  0  0  0  0  0  0  0  0  0
    3.3096   -5.7791    0.0000 C   0  0  0  0  0  0  0  0  0  0  0  0
    5.0416   -5.7791    0.0000 C   0  0  0  0  0  0  0  0  0  0  0  0
    4.1756   -6.2791    0.0000 C   0  0  0  0  0  0  0  0  0  0  0  0
    3.1272    3.0954    0.0000 H   0  0  0  0  0  0  0  0  0  0  0  0
    2.8809    2.3374    0.0000 H   0  0  0  0  0  0  0  0  0  0  0  0
    4.5274    2.7130    0.0000 H   0  0  0  0  0  0  0  0  0  0  0  0
    4.7737    3.4710    0.0000 H   0  0  0  0  0  0  0  0  0  0  0  0
    3.6624    4.7427    0.0000 H   0  0  0  0  0  0  0  0  0  0  0  0
    3.4161    3.9847    0.0000 H   0  0  0  0  0  0  0  0  0  0  0  0
    2.4712   -0.9960    0.0000 H   0  0  0  0  0  0  0  0  0  0  0  0
    5.0400   -1.2386    0.0000 H   0  0  0  0  0  0  0  0  0  0  0  0
    5.5742   -2.8829    0.0000 H   0  0  0  0  0  0  0  0  0  0  0  0
    2.7726   -6.0891    0.0000 H   0  0  0  0  0  0  0  0  0  0  0  0
    5.5785   -6.0891    0.0000 H   0  0  0  0  0  0  0  0  0  0  0  0
    4.1756   -6.8991    0.0000 H   0  0  0  0  0  0  0  0  0  0  0  0
    4.9870    6.2791    0.0000 H   0  0  0  0  0  0  0  0  0  0  0  0
  1 23  1  0  0  0  0
  2 24  1  0  0  0  0
  3 14  1  0  0  0  0
  3 15  1  0  0  0  0
  4 15  2  0  0  0  0
  5 17  1  0  0  0  0
  5 18  1  0  0  0  0
  6 13  2  0  0  0  0
  7 21  1  0  0  0  0
  7 40  1  0  0  0  0
  8 21  2  0  0  0  0
  9 10  1  0  0  0  0
  9 13  1  0  0  0  0
  9 15  1  0  0  0  0
 10 11  1  0  0  0  0
 10 28  1  0  0  0  0
 10 29  1  0  0  0  0
 11 12  1  0  0  0  0
 11 30  1  0  0  0  0
 11 31  1  0  0  0  0
 12 21  1  0  0  0  0
 12 32  1  0  0  0  0
 12 33  1  0  0  0  0
 13 14  1  0  0  0  0
 14 16  2  0  0  0  0
 16 17  1  0  0  0  0
 16 34  1  0  0  0  0
 17 20  2  0  0  0  0
 18 19  1  0  0  0  0
 18 22  2  0  0  0  0
 19 23  2  0  0  0  0
 19 24  1  0  0  0  0
 20 22  1  0  0  0  0
 20 35  1  0  0  0  0
 22 36  1  0  0  0  0
 23 25  1  0  0  0  0
 24 26  2  0  0  0  0
 25 27  2  0  0  0  0
 25 37  1  0  0  0  0
 26 27  1  0  0  0  0
 26 38  1  0  0  0  0
 27 39  1  0  0  0  0
M  END
> <PUBCHEM_COMPOUND_CID>
5828227

> <PUBCHEM_COMPOUND_CANONICALIZED>
1

> <PUBCHEM_CACTVS_COMPLEXITY>
635

> <PUBCHEM_CACTVS_HBOND_ACCEPTOR>
6

> <PUBCHEM_CACTVS_HBOND_DONOR>
1

> <PUBCHEM_CACTVS_ROTATABLE_BOND>
6

> <PUBCHEM_CACTVS_SUBSKEYS>
AAADccB6OABmAAAAAAAAAAAAAAAAAWJAAAAwAAAAAAAAAAABwAAAHgYACAAADAbB2CQwDIMABkiMAqHSGACCCABkJRgIiAEOCsgMJjKFtxqGeSCkxhGIrYesyPCOAAAAAACBAAAAAAAAAQIAAAAAAAAAAA==

> <PUBCHEM_IUPAC_OPENEYE_NAME>
4-[(5Z)-5-[[5-(2,6-dichlorophenyl)-2-furyl]methylene]-4-oxo-2-thioxo-thiazolidin-3-yl]butanoic acid

> <PUBCHEM_IUPAC_CAS_NAME>
4-[(5Z)-5-[[5-(2,6-dichlorophenyl)-2-furanyl]methylidene]-4-oxo-2-sulfanylidene-3-thiazolidinyl]butanoic acid

> <PUBCHEM_IUPAC_NAME>
4-[(5Z)-5-[[5-(2,6-dichlorophenyl)furan-2-yl]methylidene]-4-oxo-2-sulfanylidene-1,3-thiazolidin-3-yl]butanoic acid

> <PUBCHEM_IUPAC_SYSTEMATIC_NAME>
4-[(5Z)-5-[[5-[2,6-bis(chloranyl)phenyl]furan-2-yl]methylidene]-4-oxidanylidene-2-sulfanylidene-1,3-thiazolidin-3-yl]butanoic acid

> <PUBCHEM_IUPAC_TRADITIONAL_NAME>
4-[(5Z)-5-[[5-(2,6-dichlorophenyl)-2-furyl]methylene]-4-keto-2-thioxo-thiazolidin-3-yl]butyric acid

> <PUBCHEM_IUPAC_INCHI>
InChI=1S/C18H13Cl2NO4S2/c19-11-3-1-4-12(20)16(11)13-7-6-10(25-13)9-14-17(24)21(18(26)27-14)8-2-5-15(22)23/h1,3-4,6-7,9H,2,5,8H2,(H,22,23)/b14-9-

> <PUBCHEM_IUPAC_INCHIKEY>
ICANFXDIMLZIQX-ZROIWOOFSA-N

> <PUBCHEM_XLOGP3_AA>
4.9

> <PUBCHEM_EXACT_MASS>
440.966

> <PUBCHEM_MOLECULAR_FORMULA>
C18H13Cl2NO4S2

> <PUBCHEM_MOLECULAR_WEIGHT>
442.325

> <PUBCHEM_OPENEYE_CAN_SMILES>
C1=CC(=C(C(=C1)Cl)C2=CC=C(O2)C=C3C(=O)N(C(=S)S3)CCCC(=O)O)Cl

> <PUBCHEM_OPENEYE_ISO_SMILES>
C1=CC(=C(C(=C1)Cl)C2=CC=C(O2)/C=C\3/C(=O)N(C(=S)S3)CCCC(=O)O)Cl

> <PUBCHEM_CACTVS_TPSA>
128

> <PUBCHEM_MONOISOTOPIC_WEIGHT>
440.966

> <PUBCHEM_TOTAL_CHARGE>
0

> <PUBCHEM_HEAVY_ATOM_COUNT>
27

> <PUBCHEM_ATOM_DEF_STEREO_COUNT>
0

> <PUBCHEM_ATOM_UDEF_STEREO_COUNT>
0

> <PUBCHEM_BOND_DEF_STEREO_COUNT>
1

> <PUBCHEM_BOND_UDEF_STEREO_COUNT>
0

> <PUBCHEM_ISOTOPIC_ATOM_COUNT>
0

> <PUBCHEM_COMPONENT_COUNT>
1

> <PUBCHEM_CACTVS_TAUTO_COUNT>
1

> <PUBCHEM_COORDINATE_TYPE>
1
5
255

> <PUBCHEM_BONDANNOTATIONS>
17  20  8
18  22  8
19  23  8
19  24  8
20  22  8
23  25  8
24  26  8
25  27  8
26  27  8
5  17  8
5  18  8

$$$$
5827971
  -OEChem-11021604552D

 49 51  0     0  0  0  0  0  0999 V2000
    4.3010   -0.2004    0.0000 S   0  0  0  0  0  0  0  0  0  0  0  0
    3.3304    1.2941    0.0000 S   0  0  0  0  0  0  0  0  0  0  0  0
    2.0000   -7.1697    0.0000 F   0  0  0  0  0  0  0  0  0  0  0  0
    3.3660   -7.5357    0.0000 F   0  0  0  0  0  0  0  0  0  0  0  0
    2.3660   -5.8037    0.0000 F   0  0  0  0  0  0  0  0  0  0  0  0
    5.4071   -3.0819    0.0000 O   0  0  0  0  0  0  0  0  0  0  0  0
    6.7736    0.5623    0.0000 O   0  0  0  0  0  0  0  0  0  0  0  0
    3.7122    7.1209    0.0000 O   0  0  0  0  0  0  0  0  0  0  0  0
    2.5532    5.8337    0.0000 O   0  0  0  0  0  0  0  0  0  0  0  0
    5.1100    1.2009    0.0000 N   0  0  0  0  0  0  0  0  0  0  0  0
    4.5748    2.8482    0.0000 C   0  0  0  0  0  0  0  0  0  0  0  0
    4.7827    3.8263    0.0000 C   0  0  0  0  0  0  0  0  0  0  0  0
    5.3179    2.1790    0.0000 C   0  0  0  0  0  0  0  0  0  0  0  0
    4.0395    4.4954    0.0000 C   0  0  0  0  0  0  0  0  0  0  0  0
    4.2474    5.4736    0.0000 C   0  0  0  0  0  0  0  0  0  0  0  0
    5.7791    0.4577    0.0000 C   0  0  0  0  0  0  0  0  0  0  0  0
    4.1964    0.7941    0.0000 C   0  0  0  0  0  0  0  0  0  0  0  0
    5.2791   -0.4083    0.0000 C   0  0  0  0  0  0  0  0  0  0  0  0
    5.6859   -1.3218    0.0000 C   0  0  0  0  0  0  0  0  0  0  0  0
    3.5043    6.1427    0.0000 C   0  0  0  0  0  0  0  0  0  0  0  0
    5.0981   -2.1308    0.0000 C   0  0  0  0  0  0  0  0  0  0  0  0
    4.5981   -3.6697    0.0000 C   0  0  0  0  0  0  0  0  0  0  0  0
    4.5981   -4.6697    0.0000 C   0  0  0  0  0  0  0  0  0  0  0  0
    4.0981   -2.1308    0.0000 C   0  0  0  0  0  0  0  0  0  0  0  0
    3.7891   -3.0819    0.0000 C   0  0  0  0  0  0  0  0  0  0  0  0
    3.7320   -5.1697    0.0000 C   0  0  0  0  0  0  0  0  0  0  0  0
    3.7320   -6.1697    0.0000 C   0  0  0  0  0  0  0  0  0  0  0  0
    5.4641   -5.1697    0.0000 C   0  0  0  0  0  0  0  0  0  0  0  0
    4.5981   -6.6697    0.0000 C   0  0  0  0  0  0  0  0  0  0  0  0
    5.4641   -6.1697    0.0000 C   0  0  0  0  0  0  0  0  0  0  0  0
    2.8660   -6.6697    0.0000 C   0  0  0  0  0  0  0  0  0  0  0  0
    3.9999    3.0804    0.0000 H   0  0  0  0  0  0  0  0  0  0  0  0
    4.2462    2.3224    0.0000 H   0  0  0  0  0  0  0  0  0  0  0  0
    5.3575    3.5940    0.0000 H   0  0  0  0  0  0  0  0  0  0  0  0
    5.1112    4.3521    0.0000 H   0  0  0  0  0  0  0  0  0  0  0  0
    5.8928    1.9468    0.0000 H   0  0  0  0  0  0  0  0  0  0  0  0
    5.6465    2.7048    0.0000 H   0  0  0  0  0  0  0  0  0  0  0  0
    3.4647    4.7277    0.0000 H   0  0  0  0  0  0  0  0  0  0  0  0
    3.7110    3.9696    0.0000 H   0  0  0  0  0  0  0  0  0  0  0  0
    4.8223    5.2413    0.0000 H   0  0  0  0  0  0  0  0  0  0  0  0
    4.5760    5.9994    0.0000 H   0  0  0  0  0  0  0  0  0  0  0  0
    6.3025   -1.3866    0.0000 H   0  0  0  0  0  0  0  0  0  0  0  0
    3.7336   -1.6293    0.0000 H   0  0  0  0  0  0  0  0  0  0  0  0
    3.1994   -3.2735    0.0000 H   0  0  0  0  0  0  0  0  0  0  0  0
    3.1951   -4.8597    0.0000 H   0  0  0  0  0  0  0  0  0  0  0  0
    6.0010   -4.8597    0.0000 H   0  0  0  0  0  0  0  0  0  0  0  0
    4.5981   -7.2897    0.0000 H   0  0  0  0  0  0  0  0  0  0  0  0
    6.0010   -6.4797    0.0000 H   0  0  0  0  0  0  0  0  0  0  0  0
    3.2515    7.5357    0.0000 H   0  0  0  0  0  0  0  0  0  0  0  0
  1 17  1  0  0  0  0
  1 18  1  0  0  0  0
  2 17  2  0  0  0  0
  3 31  1  0  0  0  0
  4 31  1  0  0  0  0
  5 31  1  0  0  0  0
  6 21  1  0  0  0  0
  6 22  1  0  0  0  0
  7 16  2  0  0  0  0
  8 20  1  0  0  0  0
  8 49  1  0  0  0  0
  9 20  2  0  0  0  0
 10 13  1  0  0  0  0
 10 16  1  0  0  0  0
 10 17  1  0  0  0  0
 11 12  1  0  0  0  0
 11 13  1  0  0  0  0
 11 32  1  0  0  0  0
 11 33  1  0  0  0  0
 12 14  1  0  0  0  0
 12 34  1  0  0  0  0
 12 35  1  0  0  0  0
 13 36  1  0  0  0  0
 13 37  1  0  0  0  0
 14 15  1  0  0  0  0
 14 38  1  0  0  0  0
 14 39  1  0  0  0  0
 15 20  1  0  0  0  0
 15 40  1  0  0  0  0
 15 41  1  0  0  0  0
 16 18  1  0  0  0  0
 18 19  2  0  0  0  0
 19 21  1  0  0  0  0
 19 42  1  0  0  0  0
 21 24  2  0  0  0  0
 22 23  1  0  0  0  0
 22 25  2  0  0  0  0
 23 26  2  0  0  0  0
 23 28  1  0  0  0  0
 24 25  1  0  0  0  0
 24 43  1  0  0  0  0
 25 44  1  0  0  0  0
 26 27  1  0  0  0  0
 26 45  1  0  0  0  0
 27 29  2  0  0  0  0
 27 31  1  0  0  0  0
 28 30  2  0  0  0  0
 28 46  1  0  0  0  0
 29 30  1  0  0  0  0
 29 47  1  0  0  0  0
 30 48  1  0  0  0  0
M  END
> <PUBCHEM_COMPOUND_CID>
5827971

> <PUBCHEM_COMPOUND_CANONICALIZED>
1

> <PUBCHEM_CACTVS_COMPLEXITY>
728

> <PUBCHEM_CACTVS_HBOND_ACCEPTOR>
9

> <PUBCHEM_CACTVS_HBOND_DONOR>
1

> <PUBCHEM_CACTVS_ROTATABLE_BOND>
8

> <PUBCHEM_CACTVS_SUBSKEYS>
AAADceB6OYBgAAAAAAAAAAAAAAAAAWJAAAAwAAAAAAAAAAABwAAAHwQACAAADATB2BQwDIMABkiMAqHSGACCCABkIBgIiAEOCMgMJjKEtRqGeSCkxhGIqYeYyPCOAAACAAAAAAAAAAQAAAAAAAAAAAAAAA==

> <PUBCHEM_IUPAC_OPENEYE_NAME>
6-[(5Z)-4-oxo-2-thioxo-5-[[5-[3-(trifluoromethyl)phenyl]-2-furyl]methylene]thiazolidin-3-yl]hexanoic acid

> <PUBCHEM_IUPAC_CAS_NAME>
6-[(5Z)-4-oxo-2-sulfanylidene-5-[[5-[3-(trifluoromethyl)phenyl]-2-furanyl]methylidene]-3-thiazolidinyl]hexanoic acid

> <PUBCHEM_IUPAC_NAME>
6-[(5Z)-4-oxo-2-sulfanylidene-5-[[5-[3-(trifluoromethyl)phenyl]furan-2-yl]methylidene]-1,3-thiazolidin-3-yl]hexanoic acid

> <PUBCHEM_IUPAC_SYSTEMATIC_NAME>
6-[(5Z)-4-oxidanylidene-2-sulfanylidene-5-[[5-[3-(trifluoromethyl)phenyl]furan-2-yl]methylidene]-1,3-thiazolidin-3-yl]hexanoic acid

> <PUBCHEM_IUPAC_TRADITIONAL_NAME>
6-[(5Z)-4-keto-2-thioxo-5-[[5-[3-(trifluoromethyl)phenyl]-2-furyl]methylene]thiazolidin-3-yl]hexanoic acid

> <PUBCHEM_IUPAC_INCHI>
InChI=1S/C21H18F3NO4S2/c22-21(23,24)14-6-4-5-13(11-14)16-9-8-15(29-16)12-17-19(28)25(20(30)31-17)10-3-1-2-7-18(26)27/h4-6,8-9,11-12H,1-3,7,10H2,(H,26,27)/b17-12-

> <PUBCHEM_IUPAC_INCHIKEY>
PCALVVVKRNMPIG-ATVHPVEESA-N

> <PUBCHEM_XLOGP3_AA>
5.2

> <PUBCHEM_EXACT_MASS>
469.063

> <PUBCHEM_MOLECULAR_FORMULA>
C21H18F3NO4S2

> <PUBCHEM_MOLECULAR_WEIGHT>
469.493

> <PUBCHEM_OPENEYE_CAN_SMILES>
C1=CC(=CC(=C1)C(F)(F)F)C2=CC=C(O2)C=C3C(=O)N(C(=S)S3)CCCCCC(=O)O

> <PUBCHEM_OPENEYE_ISO_SMILES>
C1=CC(=CC(=C1)C(F)(F)F)C2=CC=C(O2)/C=C\3/C(=O)N(C(=S)S3)CCCCCC(=O)O

> <PUBCHEM_CACTVS_TPSA>
128

> <PUBCHEM_MONOISOTOPIC_WEIGHT>
469.063

> <PUBCHEM_TOTAL_CHARGE>
0

> <PUBCHEM_HEAVY_ATOM_COUNT>
31

> <PUBCHEM_ATOM_DEF_STEREO_COUNT>
0

> <PUBCHEM_ATOM_UDEF_STEREO_COUNT>
0

> <PUBCHEM_BOND_DEF_STEREO_COUNT>
1

> <PUBCHEM_BOND_UDEF_STEREO_COUNT>
0

> <PUBCHEM_ISOTOPIC_ATOM_COUNT>
0

> <PUBCHEM_COMPONENT_COUNT>
1

> <PUBCHEM_CACTVS_TAUTO_COUNT>
1

> <PUBCHEM_COORDINATE_TYPE>
1
5
255

> <PUBCHEM_BONDANNOTATIONS>
21  24  8
22  25  8
23  26  8
23  28  8
24  25  8
26  27  8
27  29  8
28  30  8
29  30  8
6  21  8
6  22  8

$$$$
1641056
  -OEChem-11021604552D

 39 41  0     0  0  0  0  0  0999 V2000
    2.9705    1.3335    0.0000 S   0  0  0  0  0  0  0  0  0  0  0  0
    2.0000    2.8280    0.0000 S   0  0  0  0  0  0  0  0  0  0  0  0
    4.0767   -1.5480    0.0000 O   0  0  0  0  0  0  0  0  0  0  0  0
    5.4432    2.0962    0.0000 O   0  0  0  0  0  0  0  0  0  0  0  0
    2.7091    6.0293    0.0000 O   0  0  0  0  0  0  0  0  0  0  0  0
    4.4033    5.6692    0.0000 O   0  0  0  0  0  0  0  0  0  0  0  0
    2.4016   -6.6358    0.0000 O   0  5  0  0  0  0  0  0  0  0  0  0
    4.1337   -6.6358    0.0000 O   0  0  0  0  0  0  0  0  0  0  0  0
    3.7796    2.7348    0.0000 N   0  0  0  0  0  0  0  0  0  0  0  0
    3.2676   -6.1358    0.0000 N   0  3  0  0  0  0  0  0  0  0  0  0
    3.9875    3.7129    0.0000 C   0  0  0  0  0  0  0  0  0  0  0  0
    4.4487    1.9916    0.0000 C   0  0  0  0  0  0  0  0  0  0  0  0
    3.9487    1.1256    0.0000 C   0  0  0  0  0  0  0  0  0  0  0  0
    3.2443    4.3821    0.0000 C   0  0  0  0  0  0  0  0  0  0  0  0
    2.8660    2.3280    0.0000 C   0  0  0  0  0  0  0  0  0  0  0  0
    3.7676   -0.5969    0.0000 C   0  0  0  0  0  0  0  0  0  0  0  0
    4.3554    0.2121    0.0000 C   0  0  0  0  0  0  0  0  0  0  0  0
    3.2676   -2.1358    0.0000 C   0  0  0  0  0  0  0  0  0  0  0  0
    3.2676   -3.1358    0.0000 C   0  0  0  0  0  0  0  0  0  0  0  0
    2.7676   -0.5969    0.0000 C   0  0  0  0  0  0  0  0  0  0  0  0
    2.4586   -1.5480    0.0000 C   0  0  0  0  0  0  0  0  0  0  0  0
    2.4016   -3.6358    0.0000 C   0  0  0  0  0  0  0  0  0  0  0  0
    4.1337   -3.6358    0.0000 C   0  0  0  0  0  0  0  0  0  0  0  0
    3.4522    5.3602    0.0000 C   0  0  0  0  0  0  0  0  0  0  0  0
    2.4016   -4.6358    0.0000 C   0  0  0  0  0  0  0  0  0  0  0  0
    4.1337   -4.6358    0.0000 C   0  0  0  0  0  0  0  0  0  0  0  0
    3.2676   -5.1358    0.0000 C   0  0  0  0  0  0  0  0  0  0  0  0
    4.5623    3.4807    0.0000 H   0  0  0  0  0  0  0  0  0  0  0  0
    4.3160    4.2387    0.0000 H   0  0  0  0  0  0  0  0  0  0  0  0
    2.6695    4.6143    0.0000 H   0  0  0  0  0  0  0  0  0  0  0  0
    2.9158    3.8563    0.0000 H   0  0  0  0  0  0  0  0  0  0  0  0
    4.9720    0.1473    0.0000 H   0  0  0  0  0  0  0  0  0  0  0  0
    2.4032   -0.0954    0.0000 H   0  0  0  0  0  0  0  0  0  0  0  0
    1.8690   -1.7396    0.0000 H   0  0  0  0  0  0  0  0  0  0  0  0
    1.8647   -3.3258    0.0000 H   0  0  0  0  0  0  0  0  0  0  0  0
    4.6706   -3.3258    0.0000 H   0  0  0  0  0  0  0  0  0  0  0  0
    1.8647   -4.9458    0.0000 H   0  0  0  0  0  0  0  0  0  0  0  0
    4.6706   -4.9458    0.0000 H   0  0  0  0  0  0  0  0  0  0  0  0
    2.8380    6.6358    0.0000 H   0  0  0  0  0  0  0  0  0  0  0  0
  1 13  1  0  0  0  0
  1 15  1  0  0  0  0
  2 15  2  0  0  0  0
  3 16  1  0  0  0  0
  3 18  1  0  0  0  0
  4 12  2  0  0  0  0
  5 24  1  0  0  0  0
  5 39  1  0  0  0  0
  6 24  2  0  0  0  0
  7 10  1  0  0  0  0
  8 10  2  0  0  0  0
  9 11  1  0  0  0  0
  9 12  1  0  0  0  0
  9 15  1  0  0  0  0
 10 27  1  0  0  0  0
 11 14  1  0  0  0  0
 11 28  1  0  0  0  0
 11 29  1  0  0  0  0
 12 13  1  0  0  0  0
 13 17  2  0  0  0  0
 14 24  1  0  0  0  0
 14 30  1  0  0  0  0
 14 31  1  0  0  0  0
 16 17  1  0  0  0  0
 16 20  2  0  0  0  0
 17 32  1  0  0  0  0
 18 19  1  0  0  0  0
 18 21  2  0  0  0  0
 19 22  2  0  0  0  0
 19 23  1  0  0  0  0
 20 21  1  0  0  0  0
 20 33  1  0  0  0  0
 21 34  1  0  0  0  0
 22 25  1  0  0  0  0
 22 35  1  0  0  0  0
 23 26  2  0  0  0  0
 23 36  1  0  0  0  0
 25 27  2  0  0  0  0
 25 37  1  0  0  0  0
 26 27  1  0  0  0  0
 26 38  1  0  0  0  0
M  CHG  2   7  -1  10   1
M  END
> <PUBCHEM_COMPOUND_CID>
1641056

> <PUBCHEM_COMPOUND_CANONICALIZED>
1

> <PUBCHEM_CACTVS_COMPLEXITY>
669

> <PUBCHEM_CACTVS_HBOND_ACCEPTOR>
8

> <PUBCHEM_CACTVS_HBOND_DONOR>
1

> <PUBCHEM_CACTVS_ROTATABLE_BOND>
5

> <PUBCHEM_CACTVS_SUBSKEYS>
AAADccB7OABgAAAAAAAAAAAAAAAAAWJAAAAwAAAAAAAAAAABwAAAHgQECAAADAzB2AQwzIMQRkiNAqXSWwCCCABkIhgoiAEObMoMJjqEtZuGeSDmxhGI6YeY2fGeCAAAAAAAAAAQAAAAAAAAAAAAAAAAAA==

> <PUBCHEM_IUPAC_OPENEYE_NAME>
3-[(5Z)-5-[[5-(4-nitrophenyl)-2-furyl]methylene]-4-oxo-2-thioxo-thiazolidin-3-yl]propanoic acid

> <PUBCHEM_IUPAC_CAS_NAME>
3-[(5Z)-5-[[5-(4-nitrophenyl)-2-furanyl]methylidene]-4-oxo-2-sulfanylidene-3-thiazolidinyl]propanoic acid

> <PUBCHEM_IUPAC_NAME>
3-[(5Z)-5-[[5-(4-nitrophenyl)furan-2-yl]methylidene]-4-oxo-2-sulfanylidene-1,3-thiazolidin-3-yl]propanoic acid

> <PUBCHEM_IUPAC_SYSTEMATIC_NAME>
3-[(5Z)-5-[[5-(4-nitrophenyl)furan-2-yl]methylidene]-4-oxidanylidene-2-sulfanylidene-1,3-thiazolidin-3-yl]propanoic acid

> <PUBCHEM_IUPAC_TRADITIONAL_NAME>
3-[(5Z)-4-keto-5-[[5-(4-nitrophenyl)-2-furyl]methylene]-2-thioxo-thiazolidin-3-yl]propionic acid

> <PUBCHEM_IUPAC_INCHI>
InChI=1S/C17H12N2O6S2/c20-15(21)7-8-18-16(22)14(27-17(18)26)9-12-5-6-13(25-12)10-1-3-11(4-2-10)19(23)24/h1-6,9H,7-8H2,(H,20,21)/b14-9-

> <PUBCHEM_IUPAC_INCHIKEY>
FNGXWOIGFSRSSD-ZROIWOOFSA-N

> <PUBCHEM_XLOGP3_AA>
3.1

> <PUBCHEM_EXACT_MASS>
404.014

> <PUBCHEM_MOLECULAR_FORMULA>
C17H12N2O6S2

> <PUBCHEM_MOLECULAR_WEIGHT>
404.411

> <PUBCHEM_OPENEYE_CAN_SMILES>
C1=CC(=CC=C1C2=CC=C(O2)C=C3C(=O)N(C(=S)S3)CCC(=O)O)[N+](=O)[O-]

> <PUBCHEM_OPENEYE_ISO_SMILES>
C1=CC(=CC=C1C2=CC=C(O2)/C=C\3/C(=O)N(C(=S)S3)CCC(=O)O)[N+](=O)[O-]

> <PUBCHEM_CACTVS_TPSA>
174

> <PUBCHEM_MONOISOTOPIC_WEIGHT>
404.014

> <PUBCHEM_TOTAL_CHARGE>
0

> <PUBCHEM_HEAVY_ATOM_COUNT>
27

> <PUBCHEM_ATOM_DEF_STEREO_COUNT>
0

> <PUBCHEM_ATOM_UDEF_STEREO_COUNT>
0

> <PUBCHEM_BOND_DEF_STEREO_COUNT>
1

> <PUBCHEM_BOND_UDEF_STEREO_COUNT>
0

> <PUBCHEM_ISOTOPIC_ATOM_COUNT>
0

> <PUBCHEM_COMPONENT_COUNT>
1

> <PUBCHEM_CACTVS_TAUTO_COUNT>
1

> <PUBCHEM_COORDINATE_TYPE>
1
5
255

> <PUBCHEM_BONDANNOTATIONS>
16  20  8
18  21  8
19  22  8
19  23  8
20  21  8
22  25  8
23  26  8
25  27  8
26  27  8
3  16  8
3  18  8

$$$$
1587088
  -OEChem-11021604552D

 39 42  0     0  0  0  0  0  0999 V2000
    2.0000    5.0419    0.0000 Br  0  0  0  0  0  0  0  0  0  0  0  0
    5.3657    0.1169    0.0000 S   0  0  0  0  0  0  0  0  0  0  0  0
    4.1057   -1.1432    0.0000 S   0  0  0  0  0  0  0  0  0  0  0  0
    5.5686    2.0474    0.0000 O   0  0  0  0  0  0  0  0  0  0  0  0
    7.6258   -1.1432    0.0000 O   0  0  0  0  0  0  0  0  0  0  0  0
    4.1337   -4.4219    0.0000 O   0  0  0  0  0  0  0  0  0  0  0  0
    5.8657   -1.4219    0.0000 N   0  0  0  0  0  0  0  0  0  0  0  0
    5.8657   -2.4219    0.0000 C   0  0  0  0  0  0  0  0  0  0  0  0
    6.3657    0.1169    0.0000 C   0  0  0  0  0  0  0  0  0  0  0  0
    6.6748   -0.8341    0.0000 C   0  0  0  0  0  0  0  0  0  0  0  0
    6.5468    1.8395    0.0000 C   0  0  0  0  0  0  0  0  0  0  0  0
    5.4641    3.0419    0.0000 C   0  0  0  0  0  0  0  0  0  0  0  0
    6.9535    0.9259    0.0000 C   0  0  0  0  0  0  0  0  0  0  0  0
    4.5981    3.5419    0.0000 C   0  0  0  0  0  0  0  0  0  0  0  0
    5.0567   -0.8341    0.0000 C   0  0  0  0  0  0  0  0  0  0  0  0
    7.0468    2.7055    0.0000 C   0  0  0  0  0  0  0  0  0  0  0  0
    6.3776    3.4487    0.0000 C   0  0  0  0  0  0  0  0  0  0  0  0
    4.9997   -2.9219    0.0000 C   0  0  0  0  0  0  0  0  0  0  0  0
    6.7318   -2.9219    0.0000 C   0  0  0  0  0  0  0  0  0  0  0  0
    4.9997   -3.9219    0.0000 C   0  0  0  0  0  0  0  0  0  0  0  0
    4.5981    4.5419    0.0000 C   0  0  0  0  0  0  0  0  0  0  0  0
    3.7320    3.0419    0.0000 C   0  0  0  0  0  0  0  0  0  0  0  0
    6.7318   -3.9219    0.0000 C   0  0  0  0  0  0  0  0  0  0  0  0
    5.8657   -4.4219    0.0000 C   0  0  0  0  0  0  0  0  0  0  0  0
    3.7320    5.0419    0.0000 C   0  0  0  0  0  0  0  0  0  0  0  0
    2.8660    3.5419    0.0000 C   0  0  0  0  0  0  0  0  0  0  0  0
    2.8660    4.5419    0.0000 C   0  0  0  0  0  0  0  0  0  0  0  0
    7.5701    0.8611    0.0000 H   0  0  0  0  0  0  0  0  0  0  0  0
    7.6634    2.7703    0.0000 H   0  0  0  0  0  0  0  0  0  0  0  0
    6.5066    4.0551    0.0000 H   0  0  0  0  0  0  0  0  0  0  0  0
    4.4628   -2.6119    0.0000 H   0  0  0  0  0  0  0  0  0  0  0  0
    7.2687   -2.6119    0.0000 H   0  0  0  0  0  0  0  0  0  0  0  0
    5.1350    4.8519    0.0000 H   0  0  0  0  0  0  0  0  0  0  0  0
    3.7320    2.4219    0.0000 H   0  0  0  0  0  0  0  0  0  0  0  0
    7.2687   -4.2319    0.0000 H   0  0  0  0  0  0  0  0  0  0  0  0
    5.8657   -5.0419    0.0000 H   0  0  0  0  0  0  0  0  0  0  0  0
    3.7320    5.6619    0.0000 H   0  0  0  0  0  0  0  0  0  0  0  0
    2.3291    3.2319    0.0000 H   0  0  0  0  0  0  0  0  0  0  0  0
    4.1337   -5.0419    0.0000 H   0  0  0  0  0  0  0  0  0  0  0  0
  1 27  1  0  0  0  0
  2  9  1  0  0  0  0
  2 15  1  0  0  0  0
  3 15  2  0  0  0  0
  4 11  1  0  0  0  0
  4 12  1  0  0  0  0
  5 10  2  0  0  0  0
  6 20  1  0  0  0  0
  6 39  1  0  0  0  0
  7  8  1  0  0  0  0
  7 10  1  0  0  0  0
  7 15  1  0  0  0  0
  8 18  2  0  0  0  0
  8 19  1  0  0  0  0
  9 10  1  0  0  0  0
  9 13  2  0  0  0  0
 11 13  1  0  0  0  0
 11 16  2  0  0  0  0
 12 14  1  0  0  0  0
 12 17  2  0  0  0  0
 13 28  1  0  0  0  0
 14 21  2  0  0  0  0
 14 22  1  0  0  0  0
 16 17  1  0  0  0  0
 16 29  1  0  0  0  0
 17 30  1  0  0  0  0
 18 20  1  0  0  0  0
 18 31  1  0  0  0  0
 19 23  2  0  0  0  0
 19 32  1  0  0  0  0
 20 24  2  0  0  0  0
 21 25  1  0  0  0  0
 21 33  1  0  0  0  0
 22 26  2  0  0  0  0
 22 34  1  0  0  0  0
 23 24  1  0  0  0  0
 23 35  1  0  0  0  0
 24 36  1  0  0  0  0
 25 27  2  0  0  0  0
 25 37  1  0  0  0  0
 26 27  1  0  0  0  0
 26 38  1  0  0  0  0
M  END
> <PUBCHEM_COMPOUND_CID>
1587088

> <PUBCHEM_COMPOUND_CANONICALIZED>
1

> <PUBCHEM_CACTVS_COMPLEXITY>
620

> <PUBCHEM_CACTVS_HBOND_ACCEPTOR>
5

> <PUBCHEM_CACTVS_HBOND_DONOR>
1

> <PUBCHEM_CACTVS_ROTATABLE_BOND>
3

> <PUBCHEM_CACTVS_SUBSKEYS>
AAADccB6MABgEAAAAAAAAAAAAAAAAWJAAAAwYAAAAAAAAAAB0AAAHgRACAABrAyB2AAwxoMABkiMAqVSUACCCABlIhwIiAEGbOgMJjLGtZuGeSjmxBnI+5eY2POOAgAAAgAAAAAEAAAEAAAAAAAAAAAAAA==

> <PUBCHEM_IUPAC_OPENEYE_NAME>
(5Z)-5-[[5-(4-bromophenyl)-2-furyl]methylene]-3-(3-hydroxyphenyl)-2-thioxo-thiazolidin-4-one

> <PUBCHEM_IUPAC_CAS_NAME>
(5Z)-5-[[5-(4-bromophenyl)-2-furanyl]methylidene]-3-(3-hydroxyphenyl)-2-sulfanylidene-4-thiazolidinone

> <PUBCHEM_IUPAC_NAME>
(5Z)-5-[[5-(4-bromophenyl)furan-2-yl]methylidene]-3-(3-hydroxyphenyl)-2-sulfanylidene-1,3-thiazolidin-4-one

> <PUBCHEM_IUPAC_SYSTEMATIC_NAME>
(5Z)-5-[[5-(4-bromophenyl)furan-2-yl]methylidene]-3-(3-hydroxyphenyl)-2-sulfanylidene-1,3-thiazolidin-4-one

> <PUBCHEM_IUPAC_TRADITIONAL_NAME>
(5Z)-5-[[5-(4-bromophenyl)-2-furyl]methylene]-3-(3-hydroxyphenyl)-2-thioxo-thiazolidin-4-one

> <PUBCHEM_IUPAC_INCHI>
InChI=1S/C20H12BrNO3S2/c21-13-6-4-12(5-7-13)17-9-8-16(25-17)11-18-19(24)22(20(26)27-18)14-2-1-3-15(23)10-14/h1-11,23H/b18-11-

> <PUBCHEM_IUPAC_INCHIKEY>
NVLZYLQBZXLBQR-WQRHYEAKSA-N

> <PUBCHEM_XLOGP3_AA>
5.6

> <PUBCHEM_EXACT_MASS>
456.944

> <PUBCHEM_MOLECULAR_FORMULA>
C20H12BrNO3S2

> <PUBCHEM_MOLECULAR_WEIGHT>
458.344

> <PUBCHEM_OPENEYE_CAN_SMILES>
C1=CC(=CC(=C1)O)N2C(=O)C(=CC3=CC=C(O3)C4=CC=C(C=C4)Br)SC2=S

> <PUBCHEM_OPENEYE_ISO_SMILES>
C1=CC(=CC(=C1)O)N2C(=O)/C(=C/C3=CC=C(O3)C4=CC=C(C=C4)Br)/SC2=S

> <PUBCHEM_CACTVS_TPSA>
111

> <PUBCHEM_MONOISOTOPIC_WEIGHT>
456.944

> <PUBCHEM_TOTAL_CHARGE>
0

> <PUBCHEM_HEAVY_ATOM_COUNT>
27

> <PUBCHEM_ATOM_DEF_STEREO_COUNT>
0

> <PUBCHEM_ATOM_UDEF_STEREO_COUNT>
0

> <PUBCHEM_BOND_DEF_STEREO_COUNT>
1

> <PUBCHEM_BOND_UDEF_STEREO_COUNT>
0

> <PUBCHEM_ISOTOPIC_ATOM_COUNT>
0

> <PUBCHEM_COMPONENT_COUNT>
1

> <PUBCHEM_CACTVS_TAUTO_COUNT>
3

> <PUBCHEM_COORDINATE_TYPE>
1
5
255

> <PUBCHEM_BONDANNOTATIONS>
11  16  8
12  17  8
14  21  8
14  22  8
16  17  8
18  20  8
19  23  8
20  24  8
21  25  8
22  26  8
23  24  8
25  27  8
26  27  8
4  11  8
4  12  8
8  18  8
8  19  8

$$$$
44786879
  -OEChem-11021604552D

 40 42  0     1  0  0  0  0  0999 V2000
    2.0000   -5.4554    0.0000 Cl  0  0  0  0  0  0  0  0  0  0  0  0
    3.4350    1.0139    0.0000 S   0  0  0  0  0  0  0  0  0  0  0  0
    2.4644    2.5084    0.0000 S   0  0  0  0  0  0  0  0  0  0  0  0
    4.5411   -1.8676    0.0000 O   0  0  0  0  0  0  0  0  0  0  0  0
    3.9166    5.0406    0.0000 O   0  0  0  0  0  0  0  0  0  0  0  0
    5.9076    1.7765    0.0000 O   0  0  0  0  0  0  0  0  0  0  0  0
    2.7577    3.7534    0.0000 O   0  0  0  0  0  0  0  0  0  0  0  0
    4.2440    2.4151    0.0000 N   0  0  0  0  0  0  0  0  0  0  0  0
    4.4519    3.3933    0.0000 C   0  0  3  0  0  0  0  0  0  0  0  0
    5.4029    3.7023    0.0000 C   0  0  0  0  0  0  0  0  0  0  0  0
    4.9131    1.6720    0.0000 C   0  0  0  0  0  0  0  0  0  0  0  0
    4.4131    0.8060    0.0000 C   0  0  0  0  0  0  0  0  0  0  0  0
    3.3304    2.0084    0.0000 C   0  0  0  0  0  0  0  0  0  0  0  0
    5.6108    4.6805    0.0000 C   0  0  0  0  0  0  0  0  0  0  0  0
    3.7087    4.0624    0.0000 C   0  0  0  0  0  0  0  0  0  0  0  0
    4.8198   -0.1076    0.0000 C   0  0  0  0  0  0  0  0  0  0  0  0
    4.2320   -0.9166    0.0000 C   0  0  0  0  0  0  0  0  0  0  0  0
    3.7320   -2.4554    0.0000 C   0  0  0  0  0  0  0  0  0  0  0  0
    3.2320   -0.9166    0.0000 C   0  0  0  0  0  0  0  0  0  0  0  0
    3.7320   -3.4554    0.0000 C   0  0  0  0  0  0  0  0  0  0  0  0
    2.9230   -1.8676    0.0000 C   0  0  0  0  0  0  0  0  0  0  0  0
    2.8660   -3.9554    0.0000 C   0  0  0  0  0  0  0  0  0  0  0  0
    4.5981   -3.9554    0.0000 C   0  0  0  0  0  0  0  0  0  0  0  0
    2.8660   -4.9554    0.0000 C   0  0  0  0  0  0  0  0  0  0  0  0
    4.5981   -4.9554    0.0000 C   0  0  0  0  0  0  0  0  0  0  0  0
    3.7320   -5.4554    0.0000 C   0  0  0  0  0  0  0  0  0  0  0  0
    3.8622    3.2017    0.0000 H   0  0  0  0  0  0  0  0  0  0  0  0
    5.4892    3.0883    0.0000 H   0  0  0  0  0  0  0  0  0  0  0  0
    6.0226    3.6807    0.0000 H   0  0  0  0  0  0  0  0  0  0  0  0
    6.2173    4.5516    0.0000 H   0  0  0  0  0  0  0  0  0  0  0  0
    5.7398    5.2869    0.0000 H   0  0  0  0  0  0  0  0  0  0  0  0
    5.0044    4.8094    0.0000 H   0  0  0  0  0  0  0  0  0  0  0  0
    5.4364   -0.1724    0.0000 H   0  0  0  0  0  0  0  0  0  0  0  0
    2.8676   -0.4150    0.0000 H   0  0  0  0  0  0  0  0  0  0  0  0
    2.3334   -2.0592    0.0000 H   0  0  0  0  0  0  0  0  0  0  0  0
    3.4559    5.4554    0.0000 H   0  0  0  0  0  0  0  0  0  0  0  0
    2.3291   -3.6454    0.0000 H   0  0  0  0  0  0  0  0  0  0  0  0
    5.1350   -3.6454    0.0000 H   0  0  0  0  0  0  0  0  0  0  0  0
    5.1350   -5.2654    0.0000 H   0  0  0  0  0  0  0  0  0  0  0  0
    3.7320   -6.0754    0.0000 H   0  0  0  0  0  0  0  0  0  0  0  0
  1 24  1  0  0  0  0
  2 12  1  0  0  0  0
  2 13  1  0  0  0  0
  3 13  2  0  0  0  0
  4 17  1  0  0  0  0
  4 18  1  0  0  0  0
  5 15  1  0  0  0  0
  5 36  1  0  0  0  0
  6 11  2  0  0  0  0
  7 15  2  0  0  0  0
  8  9  1  0  0  0  0
  8 11  1  0  0  0  0
  8 13  1  0  0  0  0
  9 10  1  0  0  0  0
  9 15  1  0  0  0  0
  9 27  1  0  0  0  0
 10 14  1  0  0  0  0
 10 28  1  0  0  0  0
 10 29  1  0  0  0  0
 11 12  1  0  0  0  0
 12 16  2  0  0  0  0
 14 30  1  0  0  0  0
 14 31  1  0  0  0  0
 14 32  1  0  0  0  0
 16 17  1  0  0  0  0
 16 33  1  0  0  0  0
 17 19  2  0  0  0  0
 18 20  1  0  0  0  0
 18 21  2  0  0  0  0
 19 21  1  0  0  0  0
 19 34  1  0  0  0  0
 20 22  2  0  0  0  0
 20 23  1  0  0  0  0
 21 35  1  0  0  0  0
 22 24  1  0  0  0  0
 22 37  1  0  0  0  0
 23 25  2  0  0  0  0
 23 38  1  0  0  0  0
 24 26  2  0  0  0  0
 25 26  1  0  0  0  0
 25 39  1  0  0  0  0
 26 40  1  0  0  0  0
M  END
> <PUBCHEM_COMPOUND_CID>
44786879

> <PUBCHEM_COMPOUND_CANONICALIZED>
1

> <PUBCHEM_CACTVS_COMPLEXITY>
626

> <PUBCHEM_CACTVS_HBOND_ACCEPTOR>
6

> <PUBCHEM_CACTVS_HBOND_DONOR>
1

> <PUBCHEM_CACTVS_ROTATABLE_BOND>
5

> <PUBCHEM_CACTVS_SUBSKEYS>
AAADccB6OABkAAAAAAAAAAAAAAAAAWJAAAAwAAAAAAAAAAABwAAAHgYACAAADC7B2CQyDIMABkiMAqHSGACCCABkJRgIiAGOCsgOJjKFNzqGeSCkxhGYqYeIyPCOAAAAIAAAAAAAAABAAAAAAAAAAAAAAA==

> <PUBCHEM_IUPAC_OPENEYE_NAME>
2-[(5Z)-5-[[5-(3-chlorophenyl)-2-furyl]methylene]-4-oxo-2-thioxo-thiazolidin-3-yl]butanoic acid

> <PUBCHEM_IUPAC_CAS_NAME>
2-[(5Z)-5-[[5-(3-chlorophenyl)-2-furanyl]methylidene]-4-oxo-2-sulfanylidene-3-thiazolidinyl]butanoic acid

> <PUBCHEM_IUPAC_NAME>
2-[(5Z)-5-[[5-(3-chlorophenyl)furan-2-yl]methylidene]-4-oxo-2-sulfanylidene-1,3-thiazolidin-3-yl]butanoic acid

> <PUBCHEM_IUPAC_SYSTEMATIC_NAME>
2-[(5Z)-5-[[5-(3-chlorophenyl)furan-2-yl]methylidene]-4-oxidanylidene-2-sulfanylidene-1,3-thiazolidin-3-yl]butanoic acid

> <PUBCHEM_IUPAC_TRADITIONAL_NAME>
2-[(5Z)-5-[[5-(3-chlorophenyl)-2-furyl]methylene]-4-keto-2-thioxo-thiazolidin-3-yl]butyric acid

> <PUBCHEM_IUPAC_INCHI>
InChI=1S/C18H14ClNO4S2/c1-2-13(17(22)23)20-16(21)15(26-18(20)25)9-12-6-7-14(24-12)10-4-3-5-11(19)8-10/h3-9,13H,2H2,1H3,(H,22,23)/b15-9-

> <PUBCHEM_IUPAC_INCHIKEY>
XORUVTKTHXDEIZ-DHDCSXOGSA-N

> <PUBCHEM_XLOGP3_AA>
4.9

> <PUBCHEM_EXACT_MASS>
407.005

> <PUBCHEM_MOLECULAR_FORMULA>
C18H14ClNO4S2

> <PUBCHEM_MOLECULAR_WEIGHT>
407.883

> <PUBCHEM_OPENEYE_CAN_SMILES>
CCC(C(=O)O)N1C(=O)C(=CC2=CC=C(O2)C3=CC(=CC=C3)Cl)SC1=S

> <PUBCHEM_OPENEYE_ISO_SMILES>
CCC(C(=O)O)N1C(=O)/C(=C/C2=CC=C(O2)C3=CC(=CC=C3)Cl)/SC1=S

> <PUBCHEM_CACTVS_TPSA>
128

> <PUBCHEM_MONOISOTOPIC_WEIGHT>
407.005

> <PUBCHEM_TOTAL_CHARGE>
0

> <PUBCHEM_HEAVY_ATOM_COUNT>
26

> <PUBCHEM_ATOM_DEF_STEREO_COUNT>
0

> <PUBCHEM_ATOM_UDEF_STEREO_COUNT>
1

> <PUBCHEM_BOND_DEF_STEREO_COUNT>
1

> <PUBCHEM_BOND_UDEF_STEREO_COUNT>
0

> <PUBCHEM_ISOTOPIC_ATOM_COUNT>
0

> <PUBCHEM_COMPONENT_COUNT>
1

> <PUBCHEM_CACTVS_TAUTO_COUNT>
1

> <PUBCHEM_COORDINATE_TYPE>
1
5
255

> <PUBCHEM_BONDANNOTATIONS>
17  19  8
18  21  8
19  21  8
20  22  8
20  23  8
22  24  8
23  25  8
24  26  8
25  26  8
4  17  8
4  18  8
9  10  3

$$$$
44786881
  -OEChem-11021604552D

 40 42  0     1  0  0  0  0  0999 V2000
    3.2676   -5.9554    0.0000 Br  0  0  0  0  0  0  0  0  0  0  0  0
    2.9705    1.5139    0.0000 S   0  0  0  0  0  0  0  0  0  0  0  0
    2.0000    3.0084    0.0000 S   0  0  0  0  0  0  0  0  0  0  0  0
    4.0767   -1.3676    0.0000 O   0  0  0  0  0  0  0  0  0  0  0  0
    3.4522    5.5406    0.0000 O   0  0  0  0  0  0  0  0  0  0  0  0
    5.4432    2.2765    0.0000 O   0  0  0  0  0  0  0  0  0  0  0  0
    2.2933    4.2534    0.0000 O   0  0  0  0  0  0  0  0  0  0  0  0
    3.7796    2.9151    0.0000 N   0  0  0  0  0  0  0  0  0  0  0  0
    3.9875    3.8933    0.0000 C   0  0  3  0  0  0  0  0  0  0  0  0
    4.9385    4.2023    0.0000 C   0  0  0  0  0  0  0  0  0  0  0  0
    4.4487    2.1720    0.0000 C   0  0  0  0  0  0  0  0  0  0  0  0
    3.9487    1.3060    0.0000 C   0  0  0  0  0  0  0  0  0  0  0  0
    2.8660    2.5084    0.0000 C   0  0  0  0  0  0  0  0  0  0  0  0
    5.1464    5.1805    0.0000 C   0  0  0  0  0  0  0  0  0  0  0  0
    3.2443    4.5624    0.0000 C   0  0  0  0  0  0  0  0  0  0  0  0
    4.3554    0.3924    0.0000 C   0  0  0  0  0  0  0  0  0  0  0  0
    3.7676   -0.4166    0.0000 C   0  0  0  0  0  0  0  0  0  0  0  0
    3.2676   -1.9554    0.0000 C   0  0  0  0  0  0  0  0  0  0  0  0
    2.7676   -0.4166    0.0000 C   0  0  0  0  0  0  0  0  0  0  0  0
    3.2676   -2.9554    0.0000 C   0  0  0  0  0  0  0  0  0  0  0  0
    2.4586   -1.3676    0.0000 C   0  0  0  0  0  0  0  0  0  0  0  0
    2.4016   -3.4554    0.0000 C   0  0  0  0  0  0  0  0  0  0  0  0
    4.1337   -3.4554    0.0000 C   0  0  0  0  0  0  0  0  0  0  0  0
    2.4016   -4.4554    0.0000 C   0  0  0  0  0  0  0  0  0  0  0  0
    4.1337   -4.4554    0.0000 C   0  0  0  0  0  0  0  0  0  0  0  0
    3.2676   -4.9554    0.0000 C   0  0  0  0  0  0  0  0  0  0  0  0
    4.4482    3.4784    0.0000 H   0  0  0  0  0  0  0  0  0  0  0  0
    5.0248    3.5883    0.0000 H   0  0  0  0  0  0  0  0  0  0  0  0
    5.5582    4.1807    0.0000 H   0  0  0  0  0  0  0  0  0  0  0  0
    5.7529    5.0516    0.0000 H   0  0  0  0  0  0  0  0  0  0  0  0
    5.2754    5.7869    0.0000 H   0  0  0  0  0  0  0  0  0  0  0  0
    4.5400    5.3094    0.0000 H   0  0  0  0  0  0  0  0  0  0  0  0
    4.9720    0.3276    0.0000 H   0  0  0  0  0  0  0  0  0  0  0  0
    2.4032    0.0850    0.0000 H   0  0  0  0  0  0  0  0  0  0  0  0
    1.8690   -1.5592    0.0000 H   0  0  0  0  0  0  0  0  0  0  0  0
    2.9915    5.9554    0.0000 H   0  0  0  0  0  0  0  0  0  0  0  0
    1.8647   -3.1454    0.0000 H   0  0  0  0  0  0  0  0  0  0  0  0
    4.6706   -3.1454    0.0000 H   0  0  0  0  0  0  0  0  0  0  0  0
    1.8647   -4.7654    0.0000 H   0  0  0  0  0  0  0  0  0  0  0  0
    4.6706   -4.7654    0.0000 H   0  0  0  0  0  0  0  0  0  0  0  0
  1 26  1  0  0  0  0
  2 12  1  0  0  0  0
  2 13  1  0  0  0  0
  3 13  2  0  0  0  0
  4 17  1  0  0  0  0
  4 18  1  0  0  0  0
  5 15  1  0  0  0  0
  5 36  1  0  0  0  0
  6 11  2  0  0  0  0
  7 15  2  0  0  0  0
  8  9  1  0  0  0  0
  8 11  1  0  0  0  0
  8 13  1  0  0  0  0
  9 10  1  0  0  0  0
  9 15  1  0  0  0  0
  9 27  1  0  0  0  0
 10 14  1  0  0  0  0
 10 28  1  0  0  0  0
 10 29  1  0  0  0  0
 11 12  1  0  0  0  0
 12 16  2  0  0  0  0
 14 30  1  0  0  0  0
 14 31  1  0  0  0  0
 14 32  1  0  0  0  0
 16 17  1  0  0  0  0
 16 33  1  0  0  0  0
 17 19  2  0  0  0  0
 18 20  1  0  0  0  0
 18 21  2  0  0  0  0
 19 21  1  0  0  0  0
 19 34  1  0  0  0  0
 20 22  2  0  0  0  0
 20 23  1  0  0  0  0
 21 35  1  0  0  0  0
 22 24  1  0  0  0  0
 22 37  1  0  0  0  0
 23 25  2  0  0  0  0
 23 38  1  0  0  0  0
 24 26  2  0  0  0  0
 24 39  1  0  0  0  0
 25 26  1  0  0  0  0
 25 40  1  0  0  0  0
M  END
> <PUBCHEM_COMPOUND_CID>
44786881

> <PUBCHEM_COMPOUND_CANONICALIZED>
1

> <PUBCHEM_CACTVS_COMPLEXITY>
618

> <PUBCHEM_CACTVS_HBOND_ACCEPTOR>
6

> <PUBCHEM_CACTVS_HBOND_DONOR>
1

> <PUBCHEM_CACTVS_ROTATABLE_BOND>
5

> <PUBCHEM_CACTVS_SUBSKEYS>
AAADccB6OABgEAAAAAAAAAAAAAAAAWJAAAAwAAAAAAAAAAABwAAAHgRACAABrCzB2AQyDIMABkiMAqHSGACCCABkIBwIiAGOCOgOJjKENTqGeSCkxhGYq5eIyPCOAgAAAAAAAAAEAAAAAAAAAAAAAAAAAA==

> <PUBCHEM_IUPAC_OPENEYE_NAME>
2-[(5Z)-5-[[5-(4-bromophenyl)-2-furyl]methylene]-4-oxo-2-thioxo-thiazolidin-3-yl]butanoic acid

> <PUBCHEM_IUPAC_CAS_NAME>
2-[(5Z)-5-[[5-(4-bromophenyl)-2-furanyl]methylidene]-4-oxo-2-sulfanylidene-3-thiazolidinyl]butanoic acid

> <PUBCHEM_IUPAC_NAME>
2-[(5Z)-5-[[5-(4-bromophenyl)furan-2-yl]methylidene]-4-oxo-2-sulfanylidene-1,3-thiazolidin-3-yl]butanoic acid

> <PUBCHEM_IUPAC_SYSTEMATIC_NAME>
2-[(5Z)-5-[[5-(4-bromophenyl)furan-2-yl]methylidene]-4-oxidanylidene-2-sulfanylidene-1,3-thiazolidin-3-yl]butanoic acid

> <PUBCHEM_IUPAC_TRADITIONAL_NAME>
2-[(5Z)-5-[[5-(4-bromophenyl)-2-furyl]methylene]-4-keto-2-thioxo-thiazolidin-3-yl]butyric acid

> <PUBCHEM_IUPAC_INCHI>
InChI=1S/C18H14BrNO4S2/c1-2-13(17(22)23)20-16(21)15(26-18(20)25)9-12-7-8-14(24-12)10-3-5-11(19)6-4-10/h3-9,13H,2H2,1H3,(H,22,23)/b15-9-

> <PUBCHEM_IUPAC_INCHIKEY>
XCTMUWMKPHBVIO-DHDCSXOGSA-N

> <PUBCHEM_XLOGP3_AA>
5

> <PUBCHEM_EXACT_MASS>
450.955

> <PUBCHEM_MOLECULAR_FORMULA>
C18H14BrNO4S2

> <PUBCHEM_MOLECULAR_WEIGHT>
452.337

> <PUBCHEM_OPENEYE_CAN_SMILES>
CCC(C(=O)O)N1C(=O)C(=CC2=CC=C(O2)C3=CC=C(C=C3)Br)SC1=S

> <PUBCHEM_OPENEYE_ISO_SMILES>
CCC(C(=O)O)N1C(=O)/C(=C/C2=CC=C(O2)C3=CC=C(C=C3)Br)/SC1=S

> <PUBCHEM_CACTVS_TPSA>
128

> <PUBCHEM_MONOISOTOPIC_WEIGHT>
450.955

> <PUBCHEM_TOTAL_CHARGE>
0

> <PUBCHEM_HEAVY_ATOM_COUNT>
26

> <PUBCHEM_ATOM_DEF_STEREO_COUNT>
0

> <PUBCHEM_ATOM_UDEF_STEREO_COUNT>
1

> <PUBCHEM_BOND_DEF_STEREO_COUNT>
1

> <PUBCHEM_BOND_UDEF_STEREO_COUNT>
0

> <PUBCHEM_ISOTOPIC_ATOM_COUNT>
0

> <PUBCHEM_COMPONENT_COUNT>
1

> <PUBCHEM_CACTVS_TAUTO_COUNT>
1

> <PUBCHEM_COORDINATE_TYPE>
1
5
255

> <PUBCHEM_BONDANNOTATIONS>
17  19  8
18  21  8
19  21  8
20  22  8
20  23  8
22  24  8
23  25  8
24  26  8
25  26  8
4  17  8
4  18  8
9  10  3

$$$$
71716557
  -OEChem-11021604552D

 40 42  0     0  0  0  0  0  0999 V2000
    2.9705    1.9713    0.0000 S   0  0  0  0  0  0  0  0  0  0  0  0
    2.0000    3.4658    0.0000 S   0  0  0  0  0  0  0  0  0  0  0  0
    4.0767   -0.9102    0.0000 O   0  0  0  0  0  0  0  0  0  0  0  0
    5.4432    2.7340    0.0000 O   0  0  0  0  0  0  0  0  0  0  0  0
    3.2676   -5.4980    0.0000 O   0  0  0  0  0  0  0  0  0  0  0  0
    2.2933    4.7108    0.0000 O   0  0  0  0  0  0  0  0  0  0  0  0
    3.7796    3.3726    0.0000 N   0  0  0  0  0  0  0  0  0  0  0  0
    3.9875    4.3507    0.0000 C   0  0  0  0  0  0  0  0  0  0  0  0
    3.9487    1.7634    0.0000 C   0  0  0  0  0  0  0  0  0  0  0  0
    4.4487    2.6294    0.0000 C   0  0  0  0  0  0  0  0  0  0  0  0
    3.7676    0.0408    0.0000 C   0  0  0  0  0  0  0  0  0  0  0  0
    3.2676   -1.4980    0.0000 C   0  0  0  0  0  0  0  0  0  0  0  0
    4.3554    0.8499    0.0000 C   0  0  0  0  0  0  0  0  0  0  0  0
    3.2676   -2.4980    0.0000 C   0  0  0  0  0  0  0  0  0  0  0  0
    2.8660    2.9658    0.0000 C   0  0  0  0  0  0  0  0  0  0  0  0
    2.7676    0.0408    0.0000 C   0  0  0  0  0  0  0  0  0  0  0  0
    2.4586   -0.9102    0.0000 C   0  0  0  0  0  0  0  0  0  0  0  0
    3.2443    5.0198    0.0000 C   0  0  0  0  0  0  0  0  0  0  0  0
    2.4016   -2.9980    0.0000 C   0  0  0  0  0  0  0  0  0  0  0  0
    4.1337   -2.9980    0.0000 C   0  0  0  0  0  0  0  0  0  0  0  0
    2.4016   -3.9980    0.0000 C   0  0  0  0  0  0  0  0  0  0  0  0
    4.1337   -3.9980    0.0000 C   0  0  0  0  0  0  0  0  0  0  0  0
    3.2676   -4.4980    0.0000 C   0  0  0  0  0  0  0  0  0  0  0  0
    3.4522    5.9980    0.0000 C   0  0  0  0  0  0  0  0  0  0  0  0
    2.4016   -5.9980    0.0000 C   0  0  0  0  0  0  0  0  0  0  0  0
    4.5623    4.1185    0.0000 H   0  0  0  0  0  0  0  0  0  0  0  0
    4.3160    4.8765    0.0000 H   0  0  0  0  0  0  0  0  0  0  0  0
    4.9720    0.7851    0.0000 H   0  0  0  0  0  0  0  0  0  0  0  0
    2.4032    0.5424    0.0000 H   0  0  0  0  0  0  0  0  0  0  0  0
    1.8690   -1.1018    0.0000 H   0  0  0  0  0  0  0  0  0  0  0  0
    1.8647   -2.6880    0.0000 H   0  0  0  0  0  0  0  0  0  0  0  0
    4.6706   -2.6880    0.0000 H   0  0  0  0  0  0  0  0  0  0  0  0
    1.8647   -4.3080    0.0000 H   0  0  0  0  0  0  0  0  0  0  0  0
    4.6706   -4.3080    0.0000 H   0  0  0  0  0  0  0  0  0  0  0  0
    4.0587    5.8691    0.0000 H   0  0  0  0  0  0  0  0  0  0  0  0
    3.5812    6.6044    0.0000 H   0  0  0  0  0  0  0  0  0  0  0  0
    2.8458    6.1269    0.0000 H   0  0  0  0  0  0  0  0  0  0  0  0
    2.0916   -5.4611    0.0000 H   0  0  0  0  0  0  0  0  0  0  0  0
    1.8647   -6.3080    0.0000 H   0  0  0  0  0  0  0  0  0  0  0  0
    2.7116   -6.5349    0.0000 H   0  0  0  0  0  0  0  0  0  0  0  0
  1  9  1  0  0  0  0
  1 15  1  0  0  0  0
  2 15  2  0  0  0  0
  3 11  1  0  0  0  0
  3 12  1  0  0  0  0
  4 10  2  0  0  0  0
  5 23  1  0  0  0  0
  5 25  1  0  0  0  0
  6 18  2  0  0  0  0
  7  8  1  0  0  0  0
  7 10  1  0  0  0  0
  7 15  1  0  0  0  0
  8 18  1  0  0  0  0
  8 26  1  0  0  0  0
  8 27  1  0  0  0  0
  9 10  1  0  0  0  0
  9 13  2  0  0  0  0
 11 13  1  0  0  0  0
 11 16  2  0  0  0  0
 12 14  1  0  0  0  0
 12 17  2  0  0  0  0
 13 28  1  0  0  0  0
 14 19  2  0  0  0  0
 14 20  1  0  0  0  0
 16 17  1  0  0  0  0
 16 29  1  0  0  0  0
 17 30  1  0  0  0  0
 18 24  1  0  0  0  0
 19 21  1  0  0  0  0
 19 31  1  0  0  0  0
 20 22  2  0  0  0  0
 20 32  1  0  0  0  0
 21 23  2  0  0  0  0
 21 33  1  0  0  0  0
 22 23  1  0  0  0  0
 22 34  1  0  0  0  0
 24 35  1  0  0  0  0
 24 36  1  0  0  0  0
 24 37  1  0  0  0  0
 25 38  1  0  0  0  0
 25 39  1  0  0  0  0
 25 40  1  0  0  0  0
M  END
> <PUBCHEM_COMPOUND_CID>
71716557

> <PUBCHEM_COMPOUND_CANONICALIZED>
1

> <PUBCHEM_CACTVS_COMPLEXITY>
584

> <PUBCHEM_CACTVS_HBOND_ACCEPTOR>
6

> <PUBCHEM_CACTVS_HBOND_DONOR>
0

> <PUBCHEM_CACTVS_ROTATABLE_BOND>
5

> <PUBCHEM_CACTVS_SUBSKEYS>
AAADccB6OABgAAAAAAAAAAAAAAAAAWJAAAAwAAAAAAAAAAABwAAAHgQAAAAADATB2AYyBoMABEiMAqFSEACCCABkIBgIiAGOCMgMJjKENTqGOSCkxhGIqYeI7PzOIAAAAAAAAABAAAAAAAAAAAAAAAAAAA==

> <PUBCHEM_IUPAC_OPENEYE_NAME>
(5Z)-3-acetonyl-5-[[5-(4-methoxyphenyl)-2-furyl]methylene]-2-thioxo-thiazolidin-4-one

> <PUBCHEM_IUPAC_CAS_NAME>
(5Z)-5-[[5-(4-methoxyphenyl)-2-furanyl]methylidene]-3-(2-oxopropyl)-2-sulfanylidene-4-thiazolidinone

> <PUBCHEM_IUPAC_NAME>
(5Z)-5-[[5-(4-methoxyphenyl)furan-2-yl]methylidene]-3-(2-oxopropyl)-2-sulfanylidene-1,3-thiazolidin-4-one

> <PUBCHEM_IUPAC_SYSTEMATIC_NAME>
(5Z)-5-[[5-(4-methoxyphenyl)furan-2-yl]methylidene]-3-(2-oxidanylidenepropyl)-2-sulfanylidene-1,3-thiazolidin-4-one

> <PUBCHEM_IUPAC_TRADITIONAL_NAME>
(5Z)-3-acetonyl-5-[[5-(4-methoxyphenyl)-2-furyl]methylene]-2-thioxo-thiazolidin-4-one

> <PUBCHEM_IUPAC_INCHI>
InChI=1S/C18H15NO4S2/c1-11(20)10-19-17(21)16(25-18(19)24)9-14-7-8-15(23-14)12-3-5-13(22-2)6-4-12/h3-9H,10H2,1-2H3/b16-9-

> <PUBCHEM_IUPAC_INCHIKEY>
LHEWYNPZYZQQIM-SXGWCWSVSA-N

> <PUBCHEM_XLOGP3_AA>
3.5

> <PUBCHEM_EXACT_MASS>
373.044

> <PUBCHEM_MOLECULAR_FORMULA>
C18H15NO4S2

> <PUBCHEM_MOLECULAR_WEIGHT>
373.441

> <PUBCHEM_OPENEYE_CAN_SMILES>
CC(=O)CN1C(=O)C(=CC2=CC=C(O2)C3=CC=C(C=C3)OC)SC1=S

> <PUBCHEM_OPENEYE_ISO_SMILES>
CC(=O)CN1C(=O)/C(=C/C2=CC=C(O2)C3=CC=C(C=C3)OC)/SC1=S

> <PUBCHEM_CACTVS_TPSA>
117

> <PUBCHEM_MONOISOTOPIC_WEIGHT>
373.044

> <PUBCHEM_TOTAL_CHARGE>
0

> <PUBCHEM_HEAVY_ATOM_COUNT>
25

> <PUBCHEM_ATOM_DEF_STEREO_COUNT>
0

> <PUBCHEM_ATOM_UDEF_STEREO_COUNT>
0

> <PUBCHEM_BOND_DEF_STEREO_COUNT>
1

> <PUBCHEM_BOND_UDEF_STEREO_COUNT>
0

> <PUBCHEM_ISOTOPIC_ATOM_COUNT>
0

> <PUBCHEM_COMPONENT_COUNT>
1

> <PUBCHEM_CACTVS_TAUTO_COUNT>
3

> <PUBCHEM_COORDINATE_TYPE>
1
5
255

> <PUBCHEM_BONDANNOTATIONS>
11  16  8
12  17  8
14  19  8
14  20  8
16  17  8
19  21  8
20  22  8
21  23  8
22  23  8
3  11  8
3  12  8

$$$$
1351628
  -OEChem-11021604552D

 40 42  0     0  0  0  0  0  0999 V2000
    3.5096   -6.7791    0.0000 Br  0  0  0  0  0  0  0  0  0  0  0  0
    3.2125    0.6902    0.0000 S   0  0  0  0  0  0  0  0  0  0  0  0
    2.2420    2.1848    0.0000 S   0  0  0  0  0  0  0  0  0  0  0  0
    4.3186   -2.1913    0.0000 O   0  0  0  0  0  0  0  0  0  0  0  0
    5.6852    1.4529    0.0000 O   0  0  0  0  0  0  0  0  0  0  0  0
    3.1590    6.3642    0.0000 O   0  0  0  0  0  0  0  0  0  0  0  0
    2.0000    5.0770    0.0000 O   0  0  0  0  0  0  0  0  0  0  0  0
    4.0215    2.0915    0.0000 N   0  0  0  0  0  0  0  0  0  0  0  0
    4.2294    3.0697    0.0000 C   0  0  0  0  0  0  0  0  0  0  0  0
    3.4863    3.7388    0.0000 C   0  0  0  0  0  0  0  0  0  0  0  0
    3.6942    4.7169    0.0000 C   0  0  0  0  0  0  0  0  0  0  0  0
    4.6906    1.3484    0.0000 C   0  0  0  0  0  0  0  0  0  0  0  0
    4.1906    0.4823    0.0000 C   0  0  0  0  0  0  0  0  0  0  0  0
    3.1080    1.6848    0.0000 C   0  0  0  0  0  0  0  0  0  0  0  0
    4.5974   -0.4312    0.0000 C   0  0  0  0  0  0  0  0  0  0  0  0
    4.0096   -1.2402    0.0000 C   0  0  0  0  0  0  0  0  0  0  0  0
    3.5096   -2.7791    0.0000 C   0  0  0  0  0  0  0  0  0  0  0  0
    2.9511    5.3861    0.0000 C   0  0  0  0  0  0  0  0  0  0  0  0
    3.0096   -1.2402    0.0000 C   0  0  0  0  0  0  0  0  0  0  0  0
    3.5096   -3.7791    0.0000 C   0  0  0  0  0  0  0  0  0  0  0  0
    2.7006   -2.1913    0.0000 C   0  0  0  0  0  0  0  0  0  0  0  0
    2.6436   -4.2791    0.0000 C   0  0  0  0  0  0  0  0  0  0  0  0
    4.3756   -4.2791    0.0000 C   0  0  0  0  0  0  0  0  0  0  0  0
    2.6436   -5.2791    0.0000 C   0  0  0  0  0  0  0  0  0  0  0  0
    4.3756   -5.2791    0.0000 C   0  0  0  0  0  0  0  0  0  0  0  0
    3.5096   -5.7791    0.0000 C   0  0  0  0  0  0  0  0  0  0  0  0
    4.8043    2.8374    0.0000 H   0  0  0  0  0  0  0  0  0  0  0  0
    4.5580    3.5954    0.0000 H   0  0  0  0  0  0  0  0  0  0  0  0
    2.9114    3.9710    0.0000 H   0  0  0  0  0  0  0  0  0  0  0  0
    3.1577    3.2130    0.0000 H   0  0  0  0  0  0  0  0  0  0  0  0
    4.2691    4.4847    0.0000 H   0  0  0  0  0  0  0  0  0  0  0  0
    4.0228    5.2427    0.0000 H   0  0  0  0  0  0  0  0  0  0  0  0
    5.2140   -0.4960    0.0000 H   0  0  0  0  0  0  0  0  0  0  0  0
    2.6452   -0.7386    0.0000 H   0  0  0  0  0  0  0  0  0  0  0  0
    2.1109   -2.3829    0.0000 H   0  0  0  0  0  0  0  0  0  0  0  0
    2.1066   -3.9691    0.0000 H   0  0  0  0  0  0  0  0  0  0  0  0
    4.9126   -3.9691    0.0000 H   0  0  0  0  0  0  0  0  0  0  0  0
    2.1066   -5.5891    0.0000 H   0  0  0  0  0  0  0  0  0  0  0  0
    4.9126   -5.5891    0.0000 H   0  0  0  0  0  0  0  0  0  0  0  0
    2.6982    6.7791    0.0000 H   0  0  0  0  0  0  0  0  0  0  0  0
  1 26  1  0  0  0  0
  2 13  1  0  0  0  0
  2 14  1  0  0  0  0
  3 14  2  0  0  0  0
  4 16  1  0  0  0  0
  4 17  1  0  0  0  0
  5 12  2  0  0  0  0
  6 18  1  0  0  0  0
  6 40  1  0  0  0  0
  7 18  2  0  0  0  0
  8  9  1  0  0  0  0
  8 12  1  0  0  0  0
  8 14  1  0  0  0  0
  9 10  1  0  0  0  0
  9 27  1  0  0  0  0
  9 28  1  0  0  0  0
 10 11  1  0  0  0  0
 10 29  1  0  0  0  0
 10 30  1  0  0  0  0
 11 18  1  0  0  0  0
 11 31  1  0  0  0  0
 11 32  1  0  0  0  0
 12 13  1  0  0  0  0
 13 15  2  0  0  0  0
 15 16  1  0  0  0  0
 15 33  1  0  0  0  0
 16 19  2  0  0  0  0
 17 20  1  0  0  0  0
 17 21  2  0  0  0  0
 19 21  1  0  0  0  0
 19 34  1  0  0  0  0
 20 22  2  0  0  0  0
 20 23  1  0  0  0  0
 21 35  1  0  0  0  0
 22 24  1  0  0  0  0
 22 36  1  0  0  0  0
 23 25  2  0  0  0  0
 23 37  1  0  0  0  0
 24 26  2  0  0  0  0
 24 38  1  0  0  0  0
 25 26  1  0  0  0  0
 25 39  1  0  0  0  0
M  END
> <PUBCHEM_COMPOUND_CID>
1351628

> <PUBCHEM_COMPOUND_CANONICALIZED>
1

> <PUBCHEM_CACTVS_COMPLEXITY>
604

> <PUBCHEM_CACTVS_HBOND_ACCEPTOR>
6

> <PUBCHEM_CACTVS_HBOND_DONOR>
1

> <PUBCHEM_CACTVS_ROTATABLE_BOND>
6

> <PUBCHEM_CACTVS_SUBSKEYS>
AAADccB6OABgEAAAAAAAAAAAAAAAAWJAAAAwAAAAAAAAAAABwAAAHgRACAABrATB2AQwDIMABkiMAqHSGACCCABkIBwIiAEOCOgMJjKEtRqGeSCkxhGIq5esyPCOAgAAAAAAAAAEAAAAAAAAAAAAAAAAAA==

> <PUBCHEM_IUPAC_OPENEYE_NAME>
4-[(5Z)-5-[[5-(4-bromophenyl)-2-furyl]methylene]-4-oxo-2-thioxo-thiazolidin-3-yl]butanoic acid

> <PUBCHEM_IUPAC_CAS_NAME>
4-[(5Z)-5-[[5-(4-bromophenyl)-2-furanyl]methylidene]-4-oxo-2-sulfanylidene-3-thiazolidinyl]butanoic acid

> <PUBCHEM_IUPAC_NAME>
4-[(5Z)-5-[[5-(4-bromophenyl)furan-2-yl]methylidene]-4-oxo-2-sulfanylidene-1,3-thiazolidin-3-yl]butanoic acid

> <PUBCHEM_IUPAC_SYSTEMATIC_NAME>
4-[(5Z)-5-[[5-(4-bromophenyl)furan-2-yl]methylidene]-4-oxidanylidene-2-sulfanylidene-1,3-thiazolidin-3-yl]butanoic acid

> <PUBCHEM_IUPAC_TRADITIONAL_NAME>
4-[(5Z)-5-[[5-(4-bromophenyl)-2-furyl]methylene]-4-keto-2-thioxo-thiazolidin-3-yl]butyric acid

> <PUBCHEM_IUPAC_INCHI>
InChI=1S/C18H14BrNO4S2/c19-12-5-3-11(4-6-12)14-8-7-13(24-14)10-15-17(23)20(18(25)26-15)9-1-2-16(21)22/h3-8,10H,1-2,9H2,(H,21,22)/b15-10-

> <PUBCHEM_IUPAC_INCHIKEY>
VOZLCCPWWFCIQS-GDNBJRDFSA-N

> <PUBCHEM_XLOGP3_AA>
4.3

> <PUBCHEM_EXACT_MASS>
450.955

> <PUBCHEM_MOLECULAR_FORMULA>
C18H14BrNO4S2

> <PUBCHEM_MOLECULAR_WEIGHT>
452.337

> <PUBCHEM_OPENEYE_CAN_SMILES>
C1=CC(=CC=C1C2=CC=C(O2)C=C3C(=O)N(C(=S)S3)CCCC(=O)O)Br

> <PUBCHEM_OPENEYE_ISO_SMILES>
C1=CC(=CC=C1C2=CC=C(O2)/C=C\3/C(=O)N(C(=S)S3)CCCC(=O)O)Br

> <PUBCHEM_CACTVS_TPSA>
128

> <PUBCHEM_MONOISOTOPIC_WEIGHT>
450.955

> <PUBCHEM_TOTAL_CHARGE>
0

> <PUBCHEM_HEAVY_ATOM_COUNT>
26

> <PUBCHEM_ATOM_DEF_STEREO_COUNT>
0

> <PUBCHEM_ATOM_UDEF_STEREO_COUNT>
0

> <PUBCHEM_BOND_DEF_STEREO_COUNT>
1

> <PUBCHEM_BOND_UDEF_STEREO_COUNT>
0

> <PUBCHEM_ISOTOPIC_ATOM_COUNT>
0

> <PUBCHEM_COMPONENT_COUNT>
1

> <PUBCHEM_CACTVS_TAUTO_COUNT>
1

> <PUBCHEM_COORDINATE_TYPE>
1
5
255

> <PUBCHEM_BONDANNOTATIONS>
16  19  8
17  21  8
19  21  8
20  22  8
20  23  8
22  24  8
23  25  8
24  26  8
25  26  8
4  16  8
4  17  8

$$$$
5828229
  -OEChem-11021604552D

 40 42  0     1  0  0  0  0  0999 V2000
    3.2267   -3.5257    0.0000 Cl  0  0  0  0  0  0  0  0  0  0  0  0
    6.6908   -3.5257    0.0000 Cl  0  0  0  0  0  0  0  0  0  0  0  0
    5.2559    0.9436    0.0000 S   0  0  0  0  0  0  0  0  0  0  0  0
    6.2264    2.4382    0.0000 S   0  0  0  0  0  0  0  0  0  0  0  0
    4.1497   -1.9379    0.0000 O   0  0  0  0  0  0  0  0  0  0  0  0
    2.7832    1.7063    0.0000 O   0  0  0  0  0  0  0  0  0  0  0  0
    4.7742    4.9703    0.0000 O   0  0  0  0  0  0  0  0  0  0  0  0
    5.9331    3.6832    0.0000 O   0  0  0  0  0  0  0  0  0  0  0  0
    2.1289    4.9192    0.0000 O   0  0  0  0  0  0  0  0  0  0  0  0
    3.8231    5.2793    0.0000 O   0  0  0  0  0  0  0  0  0  0  0  0
    4.4468    2.3449    0.0000 N   0  0  0  0  0  0  0  0  0  0  0  0
    4.2389    3.3230    0.0000 C   0  0  3  0  0  0  0  0  0  0  0  0
    3.2879    3.6321    0.0000 C   0  0  0  0  0  0  0  0  0  0  0  0
    3.7777    1.6018    0.0000 C   0  0  0  0  0  0  0  0  0  0  0  0
    4.2777    0.7357    0.0000 C   0  0  0  0  0  0  0  0  0  0  0  0
    5.3604    1.9382    0.0000 C   0  0  0  0  0  0  0  0  0  0  0  0
    4.9821    3.9922    0.0000 C   0  0  0  0  0  0  0  0  0  0  0  0
    3.8710   -0.1778    0.0000 C   0  0  0  0  0  0  0  0  0  0  0  0
    4.4588   -0.9868    0.0000 C   0  0  0  0  0  0  0  0  0  0  0  0
    3.0800    4.6102    0.0000 C   0  0  0  0  0  0  0  0  0  0  0  0
    4.9588   -2.5257    0.0000 C   0  0  0  0  0  0  0  0  0  0  0  0
    5.4588   -0.9868    0.0000 C   0  0  0  0  0  0  0  0  0  0  0  0
    4.9588   -3.5257    0.0000 C   0  0  0  0  0  0  0  0  0  0  0  0
    5.7678   -1.9379    0.0000 C   0  0  0  0  0  0  0  0  0  0  0  0
    4.0927   -4.0257    0.0000 C   0  0  0  0  0  0  0  0  0  0  0  0
    5.8248   -4.0257    0.0000 C   0  0  0  0  0  0  0  0  0  0  0  0
    4.0927   -5.0257    0.0000 C   0  0  0  0  0  0  0  0  0  0  0  0
    5.8248   -5.0257    0.0000 C   0  0  0  0  0  0  0  0  0  0  0  0
    4.9588   -5.5257    0.0000 C   0  0  0  0  0  0  0  0  0  0  0  0
    3.6073    2.7543    0.0000 H   0  0  0  0  0  0  0  0  0  0  0  0
    2.6682    3.6104    0.0000 H   0  0  0  0  0  0  0  0  0  0  0  0
    3.2016    3.0181    0.0000 H   0  0  0  0  0  0  0  0  0  0  0  0
    3.2544   -0.2426    0.0000 H   0  0  0  0  0  0  0  0  0  0  0  0
    5.8232   -0.4852    0.0000 H   0  0  0  0  0  0  0  0  0  0  0  0
    6.3574   -2.1295    0.0000 H   0  0  0  0  0  0  0  0  0  0  0  0
    5.2349    5.3852    0.0000 H   0  0  0  0  0  0  0  0  0  0  0  0
    3.5558   -5.3357    0.0000 H   0  0  0  0  0  0  0  0  0  0  0  0
    6.3617   -5.3357    0.0000 H   0  0  0  0  0  0  0  0  0  0  0  0
    4.9588   -6.1457    0.0000 H   0  0  0  0  0  0  0  0  0  0  0  0
    2.0000    5.5257    0.0000 H   0  0  0  0  0  0  0  0  0  0  0  0
  1 25  1  0  0  0  0
  2 26  1  0  0  0  0
  3 15  1  0  0  0  0
  3 16  1  0  0  0  0
  4 16  2  0  0  0  0
  5 19  1  0  0  0  0
  5 21  1  0  0  0  0
  6 14  2  0  0  0  0
  7 17  1  0  0  0  0
  7 36  1  0  0  0  0
  8 17  2  0  0  0  0
  9 20  1  0  0  0  0
  9 40  1  0  0  0  0
 10 20  2  0  0  0  0
 11 12  1  0  0  0  0
 11 14  1  0  0  0  0
 11 16  1  0  0  0  0
 12 13  1  0  0  0  0
 12 17  1  0  0  0  0
 12 30  1  0  0  0  0
 13 20  1  0  0  0  0
 13 31  1  0  0  0  0
 13 32  1  0  0  0  0
 14 15  1  0  0  0  0
 15 18  2  0  0  0  0
 18 19  1  0  0  0  0
 18 33  1  0  0  0  0
 19 22  2  0  0  0  0
 21 23  1  0  0  0  0
 21 24  2  0  0  0  0
 22 24  1  0  0  0  0
 22 34  1  0  0  0  0
 23 25  2  0  0  0  0
 23 26  1  0  0  0  0
 24 35  1  0  0  0  0
 25 27  1  0  0  0  0
 26 28  2  0  0  0  0
 27 29  2  0  0  0  0
 27 37  1  0  0  0  0
 28 29  1  0  0  0  0
 28 38  1  0  0  0  0
 29 39  1  0  0  0  0
M  END
> <PUBCHEM_COMPOUND_CID>
5828229

> <PUBCHEM_COMPOUND_CANONICALIZED>
1

> <PUBCHEM_CACTVS_COMPLEXITY>
738

> <PUBCHEM_CACTVS_HBOND_ACCEPTOR>
8

> <PUBCHEM_CACTVS_HBOND_DONOR>
2

> <PUBCHEM_CACTVS_ROTATABLE_BOND>
6

> <PUBCHEM_CACTVS_SUBSKEYS>
AAADccB6OABmAAAAAAAAAAAAAAAAAWJAAAAwAAAAAAAAAAABwAAAHgYACAAADC7B2CQwDIMABkiMAqHSGACCCABkJRgIiAGOCsgOJjqFNzqGeSCmxhGYrYfLyPCOAAAAAACBAAAAAAAAAQIAAAAAAAAAAA==

> <PUBCHEM_IUPAC_OPENEYE_NAME>
2-[(5Z)-5-[[5-(2,6-dichlorophenyl)-2-furyl]methylene]-4-oxo-2-thioxo-thiazolidin-3-yl]butanedioic acid

> <PUBCHEM_IUPAC_CAS_NAME>
2-[(5Z)-5-[[5-(2,6-dichlorophenyl)-2-furanyl]methylidene]-4-oxo-2-sulfanylidene-3-thiazolidinyl]butanedioic acid

> <PUBCHEM_IUPAC_NAME>
2-[(5Z)-5-[[5-(2,6-dichlorophenyl)furan-2-yl]methylidene]-4-oxo-2-sulfanylidene-1,3-thiazolidin-3-yl]butanedioic acid

> <PUBCHEM_IUPAC_SYSTEMATIC_NAME>
2-[(5Z)-5-[[5-[2,6-bis(chloranyl)phenyl]furan-2-yl]methylidene]-4-oxidanylidene-2-sulfanylidene-1,3-thiazolidin-3-yl]butanedioic acid

> <PUBCHEM_IUPAC_TRADITIONAL_NAME>
2-[(5Z)-5-[[5-(2,6-dichlorophenyl)-2-furyl]methylene]-4-keto-2-thioxo-thiazolidin-3-yl]succinic acid

> <PUBCHEM_IUPAC_INCHI>
InChI=1S/C18H11Cl2NO6S2/c19-9-2-1-3-10(20)15(9)12-5-4-8(27-12)6-13-16(24)21(18(28)29-13)11(17(25)26)7-14(22)23/h1-6,11H,7H2,(H,22,23)(H,25,26)/b13-6-

> <PUBCHEM_IUPAC_INCHIKEY>
MVRUWJIMYXOZGV-MLPAPPSSSA-N

> <PUBCHEM_XLOGP3_AA>
4.1

> <PUBCHEM_EXACT_MASS>
470.94

> <PUBCHEM_MOLECULAR_FORMULA>
C18H11Cl2NO6S2

> <PUBCHEM_MOLECULAR_WEIGHT>
472.307

> <PUBCHEM_OPENEYE_CAN_SMILES>
C1=CC(=C(C(=C1)Cl)C2=CC=C(O2)C=C3C(=O)N(C(=S)S3)C(CC(=O)O)C(=O)O)Cl

> <PUBCHEM_OPENEYE_ISO_SMILES>
C1=CC(=C(C(=C1)Cl)C2=CC=C(O2)/C=C\3/C(=O)N(C(=S)S3)C(CC(=O)O)C(=O)O)Cl

> <PUBCHEM_CACTVS_TPSA>
165

> <PUBCHEM_MONOISOTOPIC_WEIGHT>
470.94

> <PUBCHEM_TOTAL_CHARGE>
0

> <PUBCHEM_HEAVY_ATOM_COUNT>
29

> <PUBCHEM_ATOM_DEF_STEREO_COUNT>
0

> <PUBCHEM_ATOM_UDEF_STEREO_COUNT>
1

> <PUBCHEM_BOND_DEF_STEREO_COUNT>
1

> <PUBCHEM_BOND_UDEF_STEREO_COUNT>
0

> <PUBCHEM_ISOTOPIC_ATOM_COUNT>
0

> <PUBCHEM_COMPONENT_COUNT>
1

> <PUBCHEM_CACTVS_TAUTO_COUNT>
1

> <PUBCHEM_COORDINATE_TYPE>
1
5
255

> <PUBCHEM_BONDANNOTATIONS>
12  30  3
19  22  8
21  24  8
22  24  8
23  25  8
23  26  8
25  27  8
26  28  8
27  29  8
28  29  8
5  19  8
5  21  8

$$$$
6516664
  -OEChem-11021604552D

 43 45  0     1  0  0  0  0  0999 V2000
    3.2676   -5.9554    0.0000 Br  0  0  0  0  0  0  0  0  0  0  0  0
    2.9705    1.5139    0.0000 S   0  0  0  0  0  0  0  0  0  0  0  0
    2.0000    3.0084    0.0000 S   0  0  0  0  0  0  0  0  0  0  0  0
    3.4522    5.5406    0.0000 O   0  0  0  0  0  0  0  0  0  0  0  0
    4.0767   -1.3676    0.0000 O   0  0  0  0  0  0  0  0  0  0  0  0
    5.4432    2.2765    0.0000 O   0  0  0  0  0  0  0  0  0  0  0  0
    2.2933    4.2534    0.0000 O   0  0  0  0  0  0  0  0  0  0  0  0
    3.7796    2.9151    0.0000 N   0  0  0  0  0  0  0  0  0  0  0  0
    3.9875    3.8933    0.0000 C   0  0  3  0  0  0  0  0  0  0  0  0
    4.9385    4.2023    0.0000 C   0  0  0  0  0  0  0  0  0  0  0  0
    5.1464    5.1805    0.0000 C   0  0  0  0  0  0  0  0  0  0  0  0
    4.4487    2.1720    0.0000 C   0  0  0  0  0  0  0  0  0  0  0  0
    3.2443    4.5624    0.0000 C   0  0  0  0  0  0  0  0  0  0  0  0
    2.8660    2.5084    0.0000 C   0  0  0  0  0  0  0  0  0  0  0  0
    3.9487    1.3060    0.0000 C   0  0  0  0  0  0  0  0  0  0  0  0
    6.0975    5.4895    0.0000 C   0  0  0  0  0  0  0  0  0  0  0  0
    4.3554    0.3924    0.0000 C   0  0  0  0  0  0  0  0  0  0  0  0
    3.7676   -0.4166    0.0000 C   0  0  0  0  0  0  0  0  0  0  0  0
    3.2676   -1.9554    0.0000 C   0  0  0  0  0  0  0  0  0  0  0  0
    2.7676   -0.4166    0.0000 C   0  0  0  0  0  0  0  0  0  0  0  0
    2.4586   -1.3676    0.0000 C   0  0  0  0  0  0  0  0  0  0  0  0
    3.2676   -2.9554    0.0000 C   0  0  0  0  0  0  0  0  0  0  0  0
    2.4016   -3.4554    0.0000 C   0  0  0  0  0  0  0  0  0  0  0  0
    4.1337   -3.4554    0.0000 C   0  0  0  0  0  0  0  0  0  0  0  0
    2.4016   -4.4554    0.0000 C   0  0  0  0  0  0  0  0  0  0  0  0
    4.1337   -4.4554    0.0000 C   0  0  0  0  0  0  0  0  0  0  0  0
    3.2676   -4.9554    0.0000 C   0  0  0  0  0  0  0  0  0  0  0  0
    4.6192    3.3245    0.0000 H   0  0  0  0  0  0  0  0  0  0  0  0
    5.0248    3.5883    0.0000 H   0  0  0  0  0  0  0  0  0  0  0  0
    5.5582    4.1807    0.0000 H   0  0  0  0  0  0  0  0  0  0  0  0
    5.0602    5.7944    0.0000 H   0  0  0  0  0  0  0  0  0  0  0  0
    4.5268    5.2021    0.0000 H   0  0  0  0  0  0  0  0  0  0  0  0
    6.2891    4.8998    0.0000 H   0  0  0  0  0  0  0  0  0  0  0  0
    6.6872    5.6811    0.0000 H   0  0  0  0  0  0  0  0  0  0  0  0
    5.9059    6.0791    0.0000 H   0  0  0  0  0  0  0  0  0  0  0  0
    4.9720    0.3276    0.0000 H   0  0  0  0  0  0  0  0  0  0  0  0
    2.4032    0.0850    0.0000 H   0  0  0  0  0  0  0  0  0  0  0  0
    1.8690   -1.5592    0.0000 H   0  0  0  0  0  0  0  0  0  0  0  0
    2.9915    5.9554    0.0000 H   0  0  0  0  0  0  0  0  0  0  0  0
    1.8647   -3.1454    0.0000 H   0  0  0  0  0  0  0  0  0  0  0  0
    4.6706   -3.1454    0.0000 H   0  0  0  0  0  0  0  0  0  0  0  0
    1.8647   -4.7654    0.0000 H   0  0  0  0  0  0  0  0  0  0  0  0
    4.6706   -4.7654    0.0000 H   0  0  0  0  0  0  0  0  0  0  0  0
  1 27  1  0  0  0  0
  2 14  1  0  0  0  0
  2 15  1  0  0  0  0
  3 14  2  0  0  0  0
  4 13  1  0  0  0  0
  4 39  1  0  0  0  0
  5 18  1  0  0  0  0
  5 19  1  0  0  0  0
  6 12  2  0  0  0  0
  7 13  2  0  0  0  0
  8  9  1  0  0  0  0
  8 12  1  0  0  0  0
  8 14  1  0  0  0  0
  9 10  1  0  0  0  0
  9 13  1  0  0  0  0
  9 28  1  0  0  0  0
 10 11  1  0  0  0  0
 10 29  1  0  0  0  0
 10 30  1  0  0  0  0
 11 16  1  0  0  0  0
 11 31  1  0  0  0  0
 11 32  1  0  0  0  0
 12 15  1  0  0  0  0
 15 17  2  0  0  0  0
 16 33  1  0  0  0  0
 16 34  1  0  0  0  0
 16 35  1  0  0  0  0
 17 18  1  0  0  0  0
 17 36  1  0  0  0  0
 18 20  2  0  0  0  0
 19 21  2  0  0  0  0
 19 22  1  0  0  0  0
 20 21  1  0  0  0  0
 20 37  1  0  0  0  0
 21 38  1  0  0  0  0
 22 23  2  0  0  0  0
 22 24  1  0  0  0  0
 23 25  1  0  0  0  0
 23 40  1  0  0  0  0
 24 26  2  0  0  0  0
 24 41  1  0  0  0  0
 25 27  2  0  0  0  0
 25 42  1  0  0  0  0
 26 27  1  0  0  0  0
 26 43  1  0  0  0  0
M  END
> <PUBCHEM_COMPOUND_CID>
6516664

> <PUBCHEM_COMPOUND_CANONICALIZED>
1

> <PUBCHEM_CACTVS_COMPLEXITY>
633

> <PUBCHEM_CACTVS_HBOND_ACCEPTOR>
6

> <PUBCHEM_CACTVS_HBOND_DONOR>
1

> <PUBCHEM_CACTVS_ROTATABLE_BOND>
6

> <PUBCHEM_CACTVS_SUBSKEYS>
AAADceB6OABgEAAAAAAAAAAAAAAAAWJAAAAwAAAAAAAAAAABwAAAHgRACAABrCzB2AQyDIMABkiMAqHSGACCCABkIBwIiAGOCOgOJjKEtTqGeSCkxhGYq5eIyPCOAgAAAAAAAAAEAAAAAAAAAAAAAAAAAA==

> <PUBCHEM_IUPAC_OPENEYE_NAME>
2-[(5Z)-5-[[5-(4-bromophenyl)-2-furyl]methylene]-4-oxo-2-thioxo-thiazolidin-3-yl]pentanoic acid

> <PUBCHEM_IUPAC_CAS_NAME>
2-[(5Z)-5-[[5-(4-bromophenyl)-2-furanyl]methylidene]-4-oxo-2-sulfanylidene-3-thiazolidinyl]pentanoic acid

> <PUBCHEM_IUPAC_NAME>
2-[(5Z)-5-[[5-(4-bromophenyl)furan-2-yl]methylidene]-4-oxo-2-sulfanylidene-1,3-thiazolidin-3-yl]pentanoic acid

> <PUBCHEM_IUPAC_SYSTEMATIC_NAME>
2-[(5Z)-5-[[5-(4-bromophenyl)furan-2-yl]methylidene]-4-oxidanylidene-2-sulfanylidene-1,3-thiazolidin-3-yl]pentanoic acid

> <PUBCHEM_IUPAC_TRADITIONAL_NAME>
2-[(5Z)-5-[[5-(4-bromophenyl)-2-furyl]methylene]-4-keto-2-thioxo-thiazolidin-3-yl]valeric acid

> <PUBCHEM_IUPAC_INCHI>
InChI=1S/C19H16BrNO4S2/c1-2-3-14(18(23)24)21-17(22)16(27-19(21)26)10-13-8-9-15(25-13)11-4-6-12(20)7-5-11/h4-10,14H,2-3H2,1H3,(H,23,24)/b16-10-

> <PUBCHEM_IUPAC_INCHIKEY>
ODMAKYGGRUSZPS-YBEGLDIGSA-N

> <PUBCHEM_XLOGP3_AA>
5.3

> <PUBCHEM_EXACT_MASS>
464.97

> <PUBCHEM_MOLECULAR_FORMULA>
C19H16BrNO4S2

> <PUBCHEM_MOLECULAR_WEIGHT>
466.364

> <PUBCHEM_OPENEYE_CAN_SMILES>
CCCC(C(=O)O)N1C(=O)C(=CC2=CC=C(O2)C3=CC=C(C=C3)Br)SC1=S

> <PUBCHEM_OPENEYE_ISO_SMILES>
CCCC(C(=O)O)N1C(=O)/C(=C/C2=CC=C(O2)C3=CC=C(C=C3)Br)/SC1=S

> <PUBCHEM_CACTVS_TPSA>
128

> <PUBCHEM_MONOISOTOPIC_WEIGHT>
464.97

> <PUBCHEM_TOTAL_CHARGE>
0

> <PUBCHEM_HEAVY_ATOM_COUNT>
27

> <PUBCHEM_ATOM_DEF_STEREO_COUNT>
0

> <PUBCHEM_ATOM_UDEF_STEREO_COUNT>
1

> <PUBCHEM_BOND_DEF_STEREO_COUNT>
1

> <PUBCHEM_BOND_UDEF_STEREO_COUNT>
0

> <PUBCHEM_ISOTOPIC_ATOM_COUNT>
0

> <PUBCHEM_COMPONENT_COUNT>
1

> <PUBCHEM_CACTVS_TAUTO_COUNT>
1

> <PUBCHEM_COORDINATE_TYPE>
1
5
255

> <PUBCHEM_BONDANNOTATIONS>
18  20  8
19  21  8
20  21  8
22  23  8
22  24  8
23  25  8
24  26  8
25  27  8
26  27  8
5  18  8
5  19  8
9  28  3

$$$$
1589310
  -OEChem-11021604552D

 46 48  0     0  0  0  0  0  0999 V2000
    4.0448   -7.6027    0.0000 Br  0  0  0  0  0  0  0  0  0  0  0  0
    3.7477   -0.1334    0.0000 S   0  0  0  0  0  0  0  0  0  0  0  0
    2.7772    1.3611    0.0000 S   0  0  0  0  0  0  0  0  0  0  0  0
    4.8539   -3.0149    0.0000 O   0  0  0  0  0  0  0  0  0  0  0  0
    6.2204    0.6292    0.0000 O   0  0  0  0  0  0  0  0  0  0  0  0
    3.1590    7.1878    0.0000 O   0  0  0  0  0  0  0  0  0  0  0  0
    2.0000    5.9007    0.0000 O   0  0  0  0  0  0  0  0  0  0  0  0
    4.5568    1.2679    0.0000 N   0  0  0  0  0  0  0  0  0  0  0  0
    4.0215    2.9151    0.0000 C   0  0  0  0  0  0  0  0  0  0  0  0
    4.2294    3.8933    0.0000 C   0  0  0  0  0  0  0  0  0  0  0  0
    4.7647    2.2460    0.0000 C   0  0  0  0  0  0  0  0  0  0  0  0
    3.4863    4.5624    0.0000 C   0  0  0  0  0  0  0  0  0  0  0  0
    3.6942    5.5406    0.0000 C   0  0  0  0  0  0  0  0  0  0  0  0
    5.2259    0.5247    0.0000 C   0  0  0  0  0  0  0  0  0  0  0  0
    3.6432    0.8611    0.0000 C   0  0  0  0  0  0  0  0  0  0  0  0
    4.7259   -0.3413    0.0000 C   0  0  0  0  0  0  0  0  0  0  0  0
    5.1326   -1.2548    0.0000 C   0  0  0  0  0  0  0  0  0  0  0  0
    2.9511    6.2097    0.0000 C   0  0  0  0  0  0  0  0  0  0  0  0
    4.5448   -2.0639    0.0000 C   0  0  0  0  0  0  0  0  0  0  0  0
    4.0448   -3.6027    0.0000 C   0  0  0  0  0  0  0  0  0  0  0  0
    3.5448   -2.0639    0.0000 C   0  0  0  0  0  0  0  0  0  0  0  0
    3.2358   -3.0149    0.0000 C   0  0  0  0  0  0  0  0  0  0  0  0
    4.0448   -4.6027    0.0000 C   0  0  0  0  0  0  0  0  0  0  0  0
    3.1788   -5.1027    0.0000 C   0  0  0  0  0  0  0  0  0  0  0  0
    4.9109   -5.1027    0.0000 C   0  0  0  0  0  0  0  0  0  0  0  0
    3.1788   -6.1027    0.0000 C   0  0  0  0  0  0  0  0  0  0  0  0
    4.9109   -6.1027    0.0000 C   0  0  0  0  0  0  0  0  0  0  0  0
    4.0448   -6.6027    0.0000 C   0  0  0  0  0  0  0  0  0  0  0  0
    3.4467    3.1474    0.0000 H   0  0  0  0  0  0  0  0  0  0  0  0
    3.6930    2.3894    0.0000 H   0  0  0  0  0  0  0  0  0  0  0  0
    4.8043    3.6610    0.0000 H   0  0  0  0  0  0  0  0  0  0  0  0
    4.5580    4.4191    0.0000 H   0  0  0  0  0  0  0  0  0  0  0  0
    5.3395    2.0138    0.0000 H   0  0  0  0  0  0  0  0  0  0  0  0
    5.0932    2.7718    0.0000 H   0  0  0  0  0  0  0  0  0  0  0  0
    2.9114    4.7947    0.0000 H   0  0  0  0  0  0  0  0  0  0  0  0
    3.1577    4.0366    0.0000 H   0  0  0  0  0  0  0  0  0  0  0  0
    4.2691    5.3083    0.0000 H   0  0  0  0  0  0  0  0  0  0  0  0
    4.0228    6.0664    0.0000 H   0  0  0  0  0  0  0  0  0  0  0  0
    5.7492   -1.3197    0.0000 H   0  0  0  0  0  0  0  0  0  0  0  0
    3.1804   -1.5623    0.0000 H   0  0  0  0  0  0  0  0  0  0  0  0
    2.6462   -3.2065    0.0000 H   0  0  0  0  0  0  0  0  0  0  0  0
    2.6419   -4.7927    0.0000 H   0  0  0  0  0  0  0  0  0  0  0  0
    5.4478   -4.7927    0.0000 H   0  0  0  0  0  0  0  0  0  0  0  0
    2.6982    7.6027    0.0000 H   0  0  0  0  0  0  0  0  0  0  0  0
    2.6419   -6.4127    0.0000 H   0  0  0  0  0  0  0  0  0  0  0  0
    5.4478   -6.4127    0.0000 H   0  0  0  0  0  0  0  0  0  0  0  0
  1 28  1  0  0  0  0
  2 15  1  0  0  0  0
  2 16  1  0  0  0  0
  3 15  2  0  0  0  0
  4 19  1  0  0  0  0
  4 20  1  0  0  0  0
  5 14  2  0  0  0  0
  6 18  1  0  0  0  0
  6 44  1  0  0  0  0
  7 18  2  0  0  0  0
  8 11  1  0  0  0  0
  8 14  1  0  0  0  0
  8 15  1  0  0  0  0
  9 10  1  0  0  0  0
  9 11  1  0  0  0  0
  9 29  1  0  0  0  0
  9 30  1  0  0  0  0
 10 12  1  0  0  0  0
 10 31  1  0  0  0  0
 10 32  1  0  0  0  0
 11 33  1  0  0  0  0
 11 34  1  0  0  0  0
 12 13  1  0  0  0  0
 12 35  1  0  0  0  0
 12 36  1  0  0  0  0
 13 18  1  0  0  0  0
 13 37  1  0  0  0  0
 13 38  1  0  0  0  0
 14 16  1  0  0  0  0
 16 17  2  0  0  0  0
 17 19  1  0  0  0  0
 17 39  1  0  0  0  0
 19 21  2  0  0  0  0
 20 22  2  0  0  0  0
 20 23  1  0  0  0  0
 21 22  1  0  0  0  0
 21 40  1  0  0  0  0
 22 41  1  0  0  0  0
 23 24  2  0  0  0  0
 23 25  1  0  0  0  0
 24 26  1  0  0  0  0
 24 42  1  0  0  0  0
 25 27  2  0  0  0  0
 25 43  1  0  0  0  0
 26 28  2  0  0  0  0
 26 45  1  0  0  0  0
 27 28  1  0  0  0  0
 27 46  1  0  0  0  0
M  END
> <PUBCHEM_COMPOUND_CID>
1589310

> <PUBCHEM_COMPOUND_CANONICALIZED>
1

> <PUBCHEM_CACTVS_COMPLEXITY>
634

> <PUBCHEM_CACTVS_HBOND_ACCEPTOR>
6

> <PUBCHEM_CACTVS_HBOND_DONOR>
1

> <PUBCHEM_CACTVS_ROTATABLE_BOND>
8

> <PUBCHEM_CACTVS_SUBSKEYS>
AAADceB6OABgEAAAAAAAAAAAAAAAAWJAAAAwAAAAAAAAAAABwAAAHgRACAABrATB2AQwDIMABkiMAqHSGACCCABkIBwIiAEOCOgMJjKEtRqGeSCkxhGIq5eYyPCOAgAAAAAAAAAEAAAAAAAAAAAAAAAAAA==

> <PUBCHEM_IUPAC_OPENEYE_NAME>
6-[(5Z)-5-[[5-(4-bromophenyl)-2-furyl]methylene]-4-oxo-2-thioxo-thiazolidin-3-yl]hexanoic acid

> <PUBCHEM_IUPAC_CAS_NAME>
6-[(5Z)-5-[[5-(4-bromophenyl)-2-furanyl]methylidene]-4-oxo-2-sulfanylidene-3-thiazolidinyl]hexanoic acid

> <PUBCHEM_IUPAC_NAME>
6-[(5Z)-5-[[5-(4-bromophenyl)furan-2-yl]methylidene]-4-oxo-2-sulfanylidene-1,3-thiazolidin-3-yl]hexanoic acid

> <PUBCHEM_IUPAC_SYSTEMATIC_NAME>
6-[(5Z)-5-[[5-(4-bromophenyl)furan-2-yl]methylidene]-4-oxidanylidene-2-sulfanylidene-1,3-thiazolidin-3-yl]hexanoic acid

> <PUBCHEM_IUPAC_TRADITIONAL_NAME>
6-[(5Z)-5-[[5-(4-bromophenyl)-2-furyl]methylene]-4-keto-2-thioxo-thiazolidin-3-yl]hexanoic acid

> <PUBCHEM_IUPAC_INCHI>
InChI=1S/C20H18BrNO4S2/c21-14-7-5-13(6-8-14)16-10-9-15(26-16)12-17-19(25)22(20(27)28-17)11-3-1-2-4-18(23)24/h5-10,12H,1-4,11H2,(H,23,24)/b17-12-

> <PUBCHEM_IUPAC_INCHIKEY>
YISTWVWBROCIRX-ATVHPVEESA-N

> <PUBCHEM_XLOGP3_AA>
5

> <PUBCHEM_EXACT_MASS>
478.986

> <PUBCHEM_MOLECULAR_FORMULA>
C20H18BrNO4S2

> <PUBCHEM_MOLECULAR_WEIGHT>
480.391

> <PUBCHEM_OPENEYE_CAN_SMILES>
C1=CC(=CC=C1C2=CC=C(O2)C=C3C(=O)N(C(=S)S3)CCCCCC(=O)O)Br

> <PUBCHEM_OPENEYE_ISO_SMILES>
C1=CC(=CC=C1C2=CC=C(O2)/C=C\3/C(=O)N(C(=S)S3)CCCCCC(=O)O)Br

> <PUBCHEM_CACTVS_TPSA>
128

> <PUBCHEM_MONOISOTOPIC_WEIGHT>
478.986

> <PUBCHEM_TOTAL_CHARGE>
0

> <PUBCHEM_HEAVY_ATOM_COUNT>
28

> <PUBCHEM_ATOM_DEF_STEREO_COUNT>
0

> <PUBCHEM_ATOM_UDEF_STEREO_COUNT>
0

> <PUBCHEM_BOND_DEF_STEREO_COUNT>
1

> <PUBCHEM_BOND_UDEF_STEREO_COUNT>
0

> <PUBCHEM_ISOTOPIC_ATOM_COUNT>
0

> <PUBCHEM_COMPONENT_COUNT>
1

> <PUBCHEM_CACTVS_TAUTO_COUNT>
1

> <PUBCHEM_COORDINATE_TYPE>
1
5
255

> <PUBCHEM_BONDANNOTATIONS>
19  21  8
20  22  8
21  22  8
23  24  8
23  25  8
24  26  8
25  27  8
26  28  8
27  28  8
4  19  8
4  20  8

$$$$
836391
  -OEChem-11021604552D

 43 45  0     0  0  0  0  0  0999 V2000
    5.5443    1.2377    0.0000 S   0  0  0  0  0  0  0  0  0  0  0  0
    7.1279   -1.2990    0.0000 O   0  0  0  0  0  0  0  0  0  0  0  0
    7.1279    0.4330    0.0000 N   0  0  0  0  0  0  0  0  0  0  0  0
    5.5443   -0.3717    0.0000 N   0  0  0  0  0  0  0  0  0  0  0  0
   11.6279   -0.4330    0.0000 C   0  0  0  0  0  0  0  0  0  0  0  0
   10.6279   -0.4330    0.0000 C   0  0  0  0  0  0  0  0  0  0  0  0
   12.6279   -0.4330    0.0000 C   0  0  0  0  0  0  0  0  0  0  0  0
   11.6279   -1.4330    0.0000 C   0  0  0  0  0  0  0  0  0  0  0  0
   11.6279    0.5670    0.0000 C   0  0  0  0  0  0  0  0  0  0  0  0
   10.1279    0.4330    0.0000 C   0  0  0  0  0  0  0  0  0  0  0  0
   10.1279   -1.2990    0.0000 C   0  0  0  0  0  0  0  0  0  0  0  0
    8.6279   -0.4330    0.0000 C   0  0  0  0  0  0  0  0  0  0  0  0
    9.1279    0.4330    0.0000 C   0  0  0  0  0  0  0  0  0  0  0  0
    9.1279   -1.2990    0.0000 C   0  0  0  0  0  0  0  0  0  0  0  0
    7.6279   -0.4330    0.0000 C   0  0  0  0  0  0  0  0  0  0  0  0
    4.5981    0.9330    0.0000 C   0  0  0  0  0  0  0  0  0  0  0  0
    4.5981   -0.0670    0.0000 C   0  0  0  0  0  0  0  0  0  0  0  0
    6.1279    0.4330    0.0000 C   0  0  0  0  0  0  0  0  0  0  0  0
    2.8660    0.9330    0.0000 C   0  0  0  0  0  0  0  0  0  0  0  0
    3.7320    1.4330    0.0000 C   0  0  0  0  0  0  0  0  0  0  0  0
    3.7320   -0.5670    0.0000 C   0  0  0  0  0  0  0  0  0  0  0  0
    2.8660   -0.0670    0.0000 C   0  0  0  0  0  0  0  0  0  0  0  0
    2.0000    1.4330    0.0000 C   0  0  0  0  0  0  0  0  0  0  0  0
   12.2479    0.5670    0.0000 H   0  0  0  0  0  0  0  0  0  0  0  0
   11.6279    1.1870    0.0000 H   0  0  0  0  0  0  0  0  0  0  0  0
   11.0079    0.5670    0.0000 H   0  0  0  0  0  0  0  0  0  0  0  0
   11.0079   -1.4330    0.0000 H   0  0  0  0  0  0  0  0  0  0  0  0
   11.6279   -2.0530    0.0000 H   0  0  0  0  0  0  0  0  0  0  0  0
   12.2479   -1.4330    0.0000 H   0  0  0  0  0  0  0  0  0  0  0  0
   12.6279   -1.0530    0.0000 H   0  0  0  0  0  0  0  0  0  0  0  0
   13.2479   -0.4330    0.0000 H   0  0  0  0  0  0  0  0  0  0  0  0
   12.6279    0.1870    0.0000 H   0  0  0  0  0  0  0  0  0  0  0  0
   10.4379    0.9699    0.0000 H   0  0  0  0  0  0  0  0  0  0  0  0
   10.4379   -1.8360    0.0000 H   0  0  0  0  0  0  0  0  0  0  0  0
    8.8179    0.9699    0.0000 H   0  0  0  0  0  0  0  0  0  0  0  0
    8.8179   -1.8360    0.0000 H   0  0  0  0  0  0  0  0  0  0  0  0
    7.4379    0.9699    0.0000 H   0  0  0  0  0  0  0  0  0  0  0  0
    3.7320    2.0530    0.0000 H   0  0  0  0  0  0  0  0  0  0  0  0
    3.7320   -1.1870    0.0000 H   0  0  0  0  0  0  0  0  0  0  0  0
    2.3291   -0.3770    0.0000 H   0  0  0  0  0  0  0  0  0  0  0  0
    2.3100    1.9700    0.0000 H   0  0  0  0  0  0  0  0  0  0  0  0
    1.4631    1.7430    0.0000 H   0  0  0  0  0  0  0  0  0  0  0  0
    1.6900    0.8961    0.0000 H   0  0  0  0  0  0  0  0  0  0  0  0
  1 16  1  0  0  0  0
  1 18  1  0  0  0  0
  2 15  2  0  0  0  0
  3 15  1  0  0  0  0
  3 18  1  0  0  0  0
  3 37  1  0  0  0  0
  4 17  1  0  0  0  0
  4 18  2  0  0  0  0
  5  6  1  0  0  0  0
  5  7  1  0  0  0  0
  5  8  1  0  0  0  0
  5  9  1  0  0  0  0
  6 10  2  0  0  0  0
  6 11  1  0  0  0  0
  7 30  1  0  0  0  0
  7 31  1  0  0  0  0
  7 32  1  0  0  0  0
  8 27  1  0  0  0  0
  8 28  1  0  0  0  0
  8 29  1  0  0  0  0
  9 24  1  0  0  0  0
  9 25  1  0  0  0  0
  9 26  1  0  0  0  0
 10 13  1  0  0  0  0
 10 33  1  0  0  0  0
 11 14  2  0  0  0  0
 11 34  1  0  0  0  0
 12 13  2  0  0  0  0
 12 14  1  0  0  0  0
 12 15  1  0  0  0  0
 13 35  1  0  0  0  0
 14 36  1  0  0  0  0
 16 17  2  0  0  0  0
 16 20  1  0  0  0  0
 17 21  1  0  0  0  0
 19 20  2  0  0  0  0
 19 22  1  0  0  0  0
 19 23  1  0  0  0  0
 20 38  1  0  0  0  0
 21 22  2  0  0  0  0
 21 39  1  0  0  0  0
 22 40  1  0  0  0  0
 23 41  1  0  0  0  0
 23 42  1  0  0  0  0
 23 43  1  0  0  0  0
M  END
> <PUBCHEM_COMPOUND_CID>
836391

> <PUBCHEM_COMPOUND_CANONICALIZED>
1

> <PUBCHEM_CACTVS_COMPLEXITY>
426

> <PUBCHEM_CACTVS_HBOND_ACCEPTOR>
3

> <PUBCHEM_CACTVS_HBOND_DONOR>
1

> <PUBCHEM_CACTVS_ROTATABLE_BOND>
3

> <PUBCHEM_CACTVS_SUBSKEYS>
AAADceB7IABAAAAAAAAAAAAAAAAAAWAAAAAwYAAAAAAAAFgB9AAAHgQQAAAADgiB3gAz0bLIEAisAyVydACD8KllCjlJmD0wZNiIILLgnZGEIQhogQJIyacYiMCPyAAAgAAAAQCQAAEAAAACAAAAAAAAAA==

> <PUBCHEM_IUPAC_OPENEYE_NAME>
4-tert-butyl-N-(6-methyl-1,3-benzothiazol-2-yl)benzamide

> <PUBCHEM_IUPAC_CAS_NAME>
4-tert-butyl-N-(6-methyl-1,3-benzothiazol-2-yl)benzamide

> <PUBCHEM_IUPAC_NAME>
4-tert-butyl-N-(6-methyl-1,3-benzothiazol-2-yl)benzamide

> <PUBCHEM_IUPAC_SYSTEMATIC_NAME>
4-tert-butyl-N-(6-methyl-1,3-benzothiazol-2-yl)benzamide

> <PUBCHEM_IUPAC_TRADITIONAL_NAME>
4-tert-butyl-N-(6-methyl-1,3-benzothiazol-2-yl)benzamide

> <PUBCHEM_IUPAC_INCHI>
InChI=1S/C19H20N2OS/c1-12-5-10-15-16(11-12)23-18(20-15)21-17(22)13-6-8-14(9-7-13)19(2,3)4/h5-11H,1-4H3,(H,20,21,22)

> <PUBCHEM_IUPAC_INCHIKEY>
KCSPQEKSXIVWCI-UHFFFAOYSA-N

> <PUBCHEM_XLOGP3_AA>
5.6

> <PUBCHEM_EXACT_MASS>
324.13

> <PUBCHEM_MOLECULAR_FORMULA>
C19H20N2OS

> <PUBCHEM_MOLECULAR_WEIGHT>
324.442

> <PUBCHEM_OPENEYE_CAN_SMILES>
CC1=CC2=C(C=C1)N=C(S2)NC(=O)C3=CC=C(C=C3)C(C)(C)C

> <PUBCHEM_OPENEYE_ISO_SMILES>
CC1=CC2=C(C=C1)N=C(S2)NC(=O)C3=CC=C(C=C3)C(C)(C)C

> <PUBCHEM_CACTVS_TPSA>
70.2

> <PUBCHEM_MONOISOTOPIC_WEIGHT>
324.13

> <PUBCHEM_TOTAL_CHARGE>
0

> <PUBCHEM_HEAVY_ATOM_COUNT>
23

> <PUBCHEM_ATOM_DEF_STEREO_COUNT>
0

> <PUBCHEM_ATOM_UDEF_STEREO_COUNT>
0

> <PUBCHEM_BOND_DEF_STEREO_COUNT>
0

> <PUBCHEM_BOND_UDEF_STEREO_COUNT>
0

> <PUBCHEM_ISOTOPIC_ATOM_COUNT>
0

> <PUBCHEM_COMPONENT_COUNT>
1

> <PUBCHEM_CACTVS_TAUTO_COUNT>
3

> <PUBCHEM_COORDINATE_TYPE>
1
5
255

> <PUBCHEM_BONDANNOTATIONS>
1  16  8
1  18  8
10  13  8
11  14  8
12  13  8
12  14  8
16  17  8
16  20  8
17  21  8
19  20  8
19  22  8
21  22  8
4  17  8
4  18  8
6  10  8
6  11  8

$$$$
59175460
  -OEChem-11021604552D

 45 47  0     0  0  0  0  0  0999 V2000
    8.5309   -1.2990    0.0000 O   0  0  0  0  0  0  0  0  0  0  0  0
    2.5369    0.9330    0.0000 O   0  0  0  0  0  0  0  0  0  0  0  0
    6.0010    0.9330    0.0000 N   0  0  0  0  0  0  0  0  0  0  0  0
    8.5309    0.4330    0.0000 N   0  0  0  0  0  0  0  0  0  0  0  0
    6.9473   -0.3717    0.0000 N   0  0  0  0  0  0  0  0  0  0  0  0
   13.0309   -0.4330    0.0000 C   0  0  0  0  0  0  0  0  0  0  0  0
   12.0309   -0.4330    0.0000 C   0  0  0  0  0  0  0  0  0  0  0  0
   14.0309   -0.4330    0.0000 C   0  0  0  0  0  0  0  0  0  0  0  0
   13.0309   -1.4330    0.0000 C   0  0  0  0  0  0  0  0  0  0  0  0
   13.0309    0.5670    0.0000 C   0  0  0  0  0  0  0  0  0  0  0  0
   11.5309   -1.2990    0.0000 C   0  0  0  0  0  0  0  0  0  0  0  0
   11.5309    0.4330    0.0000 C   0  0  0  0  0  0  0  0  0  0  0  0
   10.0309   -0.4330    0.0000 C   0  0  0  0  0  0  0  0  0  0  0  0
   10.5309   -1.2990    0.0000 C   0  0  0  0  0  0  0  0  0  0  0  0
   10.5309    0.4330    0.0000 C   0  0  0  0  0  0  0  0  0  0  0  0
    6.0010   -0.0670    0.0000 C   0  0  0  0  0  0  0  0  0  0  0  0
    9.0309   -0.4330    0.0000 C   0  0  0  0  0  0  0  0  0  0  0  0
    7.5309    0.4330    0.0000 C   0  0  0  0  0  0  0  0  0  0  0  0
    6.9473    1.2377    0.0000 C   0  0  0  0  0  0  0  0  0  0  0  0
    5.1350    1.4330    0.0000 C   0  0  0  0  0  0  0  0  0  0  0  0
    4.2690    0.9330    0.0000 C   0  0  0  0  0  0  0  0  0  0  0  0
    5.1350   -0.5670    0.0000 C   0  0  0  0  0  0  0  0  0  0  0  0
    4.2690   -0.0670    0.0000 C   0  0  0  0  0  0  0  0  0  0  0  0
    3.4030    1.4330    0.0000 C   0  0  0  0  0  0  0  0  0  0  0  0
   14.0309   -1.0530    0.0000 H   0  0  0  0  0  0  0  0  0  0  0  0
   13.6509    0.5670    0.0000 H   0  0  0  0  0  0  0  0  0  0  0  0
   13.0309    1.1870    0.0000 H   0  0  0  0  0  0  0  0  0  0  0  0
   12.4109    0.5670    0.0000 H   0  0  0  0  0  0  0  0  0  0  0  0
   12.4109   -1.4330    0.0000 H   0  0  0  0  0  0  0  0  0  0  0  0
   13.0309   -2.0530    0.0000 H   0  0  0  0  0  0  0  0  0  0  0  0
   13.6509   -1.4330    0.0000 H   0  0  0  0  0  0  0  0  0  0  0  0
   14.6509   -0.4330    0.0000 H   0  0  0  0  0  0  0  0  0  0  0  0
   14.0309    0.1870    0.0000 H   0  0  0  0  0  0  0  0  0  0  0  0
   11.8409   -1.8360    0.0000 H   0  0  0  0  0  0  0  0  0  0  0  0
   11.8409    0.9699    0.0000 H   0  0  0  0  0  0  0  0  0  0  0  0
   10.2209   -1.8360    0.0000 H   0  0  0  0  0  0  0  0  0  0  0  0
   10.2209    0.9699    0.0000 H   0  0  0  0  0  0  0  0  0  0  0  0
    7.1399    1.8271    0.0000 H   0  0  0  0  0  0  0  0  0  0  0  0
    5.1350    2.0530    0.0000 H   0  0  0  0  0  0  0  0  0  0  0  0
    8.8409    0.9699    0.0000 H   0  0  0  0  0  0  0  0  0  0  0  0
    5.1350   -1.1870    0.0000 H   0  0  0  0  0  0  0  0  0  0  0  0
    3.7320   -0.3770    0.0000 H   0  0  0  0  0  0  0  0  0  0  0  0
    3.8015    1.9080    0.0000 H   0  0  0  0  0  0  0  0  0  0  0  0
    3.0044    1.9080    0.0000 H   0  0  0  0  0  0  0  0  0  0  0  0
    2.0000    1.2430    0.0000 H   0  0  0  0  0  0  0  0  0  0  0  0
  1 17  2  0  0  0  0
  2 24  1  0  0  0  0
  2 45  1  0  0  0  0
  3 16  1  0  0  0  0
  3 19  1  0  0  0  0
  3 20  1  0  0  0  0
  4 17  1  0  0  0  0
  4 18  1  0  0  0  0
  4 40  1  0  0  0  0
  5 16  2  0  0  0  0
  5 18  1  0  0  0  0
  6  7  1  0  0  0  0
  6  8  1  0  0  0  0
  6  9  1  0  0  0  0
  6 10  1  0  0  0  0
  7 11  2  0  0  0  0
  7 12  1  0  0  0  0
  8 25  1  0  0  0  0
  8 32  1  0  0  0  0
  8 33  1  0  0  0  0
  9 29  1  0  0  0  0
  9 30  1  0  0  0  0
  9 31  1  0  0  0  0
 10 26  1  0  0  0  0
 10 27  1  0  0  0  0
 10 28  1  0  0  0  0
 11 14  1  0  0  0  0
 11 34  1  0  0  0  0
 12 15  2  0  0  0  0
 12 35  1  0  0  0  0
 13 14  2  0  0  0  0
 13 15  1  0  0  0  0
 13 17  1  0  0  0  0
 14 36  1  0  0  0  0
 15 37  1  0  0  0  0
 16 22  1  0  0  0  0
 18 19  2  0  0  0  0
 19 38  1  0  0  0  0
 20 21  2  0  0  0  0
 20 39  1  0  0  0  0
 21 23  1  0  0  0  0
 21 24  1  0  0  0  0
 22 23  2  0  0  0  0
 22 41  1  0  0  0  0
 23 42  1  0  0  0  0
 24 43  1  0  0  0  0
 24 44  1  0  0  0  0
M  END
> <PUBCHEM_COMPOUND_CID>
59175460

> <PUBCHEM_COMPOUND_CANONICALIZED>
1

> <PUBCHEM_CACTVS_COMPLEXITY>
440

> <PUBCHEM_CACTVS_HBOND_ACCEPTOR>
3

> <PUBCHEM_CACTVS_HBOND_DONOR>
2

> <PUBCHEM_CACTVS_ROTATABLE_BOND>
4

> <PUBCHEM_CACTVS_SUBSKEYS>
AAADceB7MAAAAAAAAAAAAAAAAAAAAWAAAAA8QAAAAAAAAFgB8AAAHgAQCAAADgDhmwY/sJ/MGgCoAjN3dACCgC01EqAJ2CE4fNiIfvLAnZGUcQhu1QPI2aeYmMKPwAAAAAAAAACAAAAAAAAAAAAAAAAAAA==

> <PUBCHEM_IUPAC_OPENEYE_NAME>
4-tert-butyl-N-[6-(hydroxymethyl)imidazo[1,2-a]pyridin-2-yl]benzamide

> <PUBCHEM_IUPAC_CAS_NAME>
4-tert-butyl-N-[6-(hydroxymethyl)-2-imidazo[1,2-a]pyridinyl]benzamide

> <PUBCHEM_IUPAC_NAME>
4-tert-butyl-N-[6-(hydroxymethyl)imidazo[1,2-a]pyridin-2-yl]benzamide

> <PUBCHEM_IUPAC_SYSTEMATIC_NAME>
4-tert-butyl-N-[6-(hydroxymethyl)imidazo[1,2-a]pyridin-2-yl]benzamide

> <PUBCHEM_IUPAC_TRADITIONAL_NAME>
4-tert-butyl-N-(6-methylolimidazo[1,2-a]pyridin-2-yl)benzamide

> <PUBCHEM_IUPAC_INCHI>
InChI=1S/C19H21N3O2/c1-19(2,3)15-7-5-14(6-8-15)18(24)21-16-11-22-10-13(12-23)4-9-17(22)20-16/h4-11,23H,12H2,1-3H3,(H,21,24)

> <PUBCHEM_IUPAC_INCHIKEY>
MICFWOWLBSARJN-UHFFFAOYSA-N

> <PUBCHEM_XLOGP3_AA>
3.7

> <PUBCHEM_EXACT_MASS>
323.163

> <PUBCHEM_MOLECULAR_FORMULA>
C19H21N3O2

> <PUBCHEM_MOLECULAR_WEIGHT>
323.396

> <PUBCHEM_OPENEYE_CAN_SMILES>
CC(C)(C)C1=CC=C(C=C1)C(=O)NC2=CN3C=C(C=CC3=N2)CO

> <PUBCHEM_OPENEYE_ISO_SMILES>
CC(C)(C)C1=CC=C(C=C1)C(=O)NC2=CN3C=C(C=CC3=N2)CO

> <PUBCHEM_CACTVS_TPSA>
66.6

> <PUBCHEM_MONOISOTOPIC_WEIGHT>
323.163

> <PUBCHEM_TOTAL_CHARGE>
0

> <PUBCHEM_HEAVY_ATOM_COUNT>
24

> <PUBCHEM_ATOM_DEF_STEREO_COUNT>
0

> <PUBCHEM_ATOM_UDEF_STEREO_COUNT>
0

> <PUBCHEM_BOND_DEF_STEREO_COUNT>
0

> <PUBCHEM_BOND_UDEF_STEREO_COUNT>
0

> <PUBCHEM_ISOTOPIC_ATOM_COUNT>
0

> <PUBCHEM_COMPONENT_COUNT>
1

> <PUBCHEM_CACTVS_TAUTO_COUNT>
2

> <PUBCHEM_COORDINATE_TYPE>
1
5
255

> <PUBCHEM_BONDANNOTATIONS>
11  14  8
12  15  8
13  14  8
13  15  8
16  22  8
18  19  8
20  21  8
21  23  8
22  23  8
3  16  8
3  19  8
3  20  8
5  16  8
5  18  8
7  11  8
7  12  8

$$$$
24944928
  -OEChem-11021604552D

 49 52  0     0  0  0  0  0  0999 V2000
   14.7106   -1.9002    0.0000 O   0  0  0  0  0  0  0  0  0  0  0  0
    8.7106   -1.9002    0.0000 O   0  0  0  0  0  0  0  0  0  0  0  0
    6.1808    0.3318    0.0000 N   0  0  0  0  0  0  0  0  0  0  0  0
    8.7106   -0.1682    0.0000 N   0  0  0  0  0  0  0  0  0  0  0  0
    7.1270   -0.9729    0.0000 N   0  0  0  0  0  0  0  0  0  0  0  0
    3.5827    0.8318    0.0000 N   0  0  0  0  0  0  0  0  0  0  0  0
    2.0000    1.1682    0.0000 N   0  0  0  0  0  0  0  0  0  0  0  0
   13.2106   -1.0342    0.0000 C   0  0  0  0  0  0  0  0  0  0  0  0
   12.2106   -1.0342    0.0000 C   0  0  0  0  0  0  0  0  0  0  0  0
   14.2106   -1.0342    0.0000 C   0  0  0  0  0  0  0  0  0  0  0  0
   13.2106   -2.0342    0.0000 C   0  0  0  0  0  0  0  0  0  0  0  0
   13.2106   -0.0342    0.0000 C   0  0  0  0  0  0  0  0  0  0  0  0
   11.7106   -0.1682    0.0000 C   0  0  0  0  0  0  0  0  0  0  0  0
   11.7106   -1.9002    0.0000 C   0  0  0  0  0  0  0  0  0  0  0  0
   10.2106   -1.0342    0.0000 C   0  0  0  0  0  0  0  0  0  0  0  0
   10.7106   -0.1682    0.0000 C   0  0  0  0  0  0  0  0  0  0  0  0
   10.7106   -1.9002    0.0000 C   0  0  0  0  0  0  0  0  0  0  0  0
    9.2106   -1.0342    0.0000 C   0  0  0  0  0  0  0  0  0  0  0  0
    6.1808   -0.6682    0.0000 C   0  0  0  0  0  0  0  0  0  0  0  0
    7.7106   -0.1682    0.0000 C   0  0  0  0  0  0  0  0  0  0  0  0
    4.4487    0.3318    0.0000 C   0  0  0  0  0  0  0  0  0  0  0  0
    7.1270    0.6365    0.0000 C   0  0  0  0  0  0  0  0  0  0  0  0
    5.3147    0.8318    0.0000 C   0  0  0  0  0  0  0  0  0  0  0  0
    5.3147   -1.1682    0.0000 C   0  0  0  0  0  0  0  0  0  0  0  0
    4.4487   -0.6682    0.0000 C   0  0  0  0  0  0  0  0  0  0  0  0
    3.4782    1.8263    0.0000 C   0  0  0  0  0  0  0  0  0  0  0  0
    2.6691    0.4251    0.0000 C   0  0  0  0  0  0  0  0  0  0  0  0
    2.5000    2.0342    0.0000 C   0  0  0  0  0  0  0  0  0  0  0  0
   14.7932   -0.8222    0.0000 H   0  0  0  0  0  0  0  0  0  0  0  0
   14.1029   -0.4236    0.0000 H   0  0  0  0  0  0  0  0  0  0  0  0
   12.5906   -2.0342    0.0000 H   0  0  0  0  0  0  0  0  0  0  0  0
   13.8306   -0.0342    0.0000 H   0  0  0  0  0  0  0  0  0  0  0  0
   13.2106    0.5858    0.0000 H   0  0  0  0  0  0  0  0  0  0  0  0
   12.5906   -0.0342    0.0000 H   0  0  0  0  0  0  0  0  0  0  0  0
   13.2106   -2.6542    0.0000 H   0  0  0  0  0  0  0  0  0  0  0  0
   13.8306   -2.0342    0.0000 H   0  0  0  0  0  0  0  0  0  0  0  0
   12.0206    0.3687    0.0000 H   0  0  0  0  0  0  0  0  0  0  0  0
   12.0206   -2.4372    0.0000 H   0  0  0  0  0  0  0  0  0  0  0  0
   10.4006    0.3687    0.0000 H   0  0  0  0  0  0  0  0  0  0  0  0
   10.4006   -2.4372    0.0000 H   0  0  0  0  0  0  0  0  0  0  0  0
   15.3306   -1.9002    0.0000 H   0  0  0  0  0  0  0  0  0  0  0  0
    7.3196    1.2259    0.0000 H   0  0  0  0  0  0  0  0  0  0  0  0
    5.3147    1.4518    0.0000 H   0  0  0  0  0  0  0  0  0  0  0  0
    9.0206    0.3687    0.0000 H   0  0  0  0  0  0  0  0  0  0  0  0
    5.3147   -1.7882    0.0000 H   0  0  0  0  0  0  0  0  0  0  0  0
    3.9118   -0.9782    0.0000 H   0  0  0  0  0  0  0  0  0  0  0  0
    3.9389    2.2412    0.0000 H   0  0  0  0  0  0  0  0  0  0  0  0
    2.5402   -0.1814    0.0000 H   0  0  0  0  0  0  0  0  0  0  0  0
    2.2478    2.6006    0.0000 H   0  0  0  0  0  0  0  0  0  0  0  0
  1 10  1  0  0  0  0
  1 41  1  0  0  0  0
  2 18  2  0  0  0  0
  3 19  1  0  0  0  0
  3 22  1  0  0  0  0
  3 23  1  0  0  0  0
  4 18  1  0  0  0  0
  4 20  1  0  0  0  0
  4 44  1  0  0  0  0
  5 19  2  0  0  0  0
  5 20  1  0  0  0  0
  6 21  1  0  0  0  0
  6 26  1  0  0  0  0
  6 27  1  0  0  0  0
  7 27  2  0  0  0  0
  7 28  1  0  0  0  0
  8  9  1  0  0  0  0
  8 10  1  0  0  0  0
  8 11  1  0  0  0  0
  8 12  1  0  0  0  0
  9 13  2  0  0  0  0
  9 14  1  0  0  0  0
 10 29  1  0  0  0  0
 10 30  1  0  0  0  0
 11 31  1  0  0  0  0
 11 35  1  0  0  0  0
 11 36  1  0  0  0  0
 12 32  1  0  0  0  0
 12 33  1  0  0  0  0
 12 34  1  0  0  0  0
 13 16  1  0  0  0  0
 13 37  1  0  0  0  0
 14 17  2  0  0  0  0
 14 38  1  0  0  0  0
 15 16  2  0  0  0  0
 15 17  1  0  0  0  0
 15 18  1  0  0  0  0
 16 39  1  0  0  0  0
 17 40  1  0  0  0  0
 19 24  1  0  0  0  0
 20 22  2  0  0  0  0
 21 23  2  0  0  0  0
 21 25  1  0  0  0  0
 22 42  1  0  0  0  0
 23 43  1  0  0  0  0
 24 25  2  0  0  0  0
 24 45  1  0  0  0  0
 25 46  1  0  0  0  0
 26 28  2  0  0  0  0
 26 47  1  0  0  0  0
 27 48  1  0  0  0  0
 28 49  1  0  0  0  0
M  END
> <PUBCHEM_COMPOUND_CID>
24944928

> <PUBCHEM_COMPOUND_CANONICALIZED>
1

> <PUBCHEM_CACTVS_COMPLEXITY>
549

> <PUBCHEM_CACTVS_HBOND_ACCEPTOR>
4

> <PUBCHEM_CACTVS_HBOND_DONOR>
2

> <PUBCHEM_CACTVS_ROTATABLE_BOND>
5

> <PUBCHEM_CACTVS_SUBSKEYS>
AAADceB7sAAAAAAAAAAAAAAAAAAAAWLAAAA8QAAAAAAAAFgB/AAAHgAQCAAADgjhmwY/8J/MGgCoAjd3dACCgC01EqAJ2CE4dNiIePLAnZGUYQhs1QPIyaeYyOCPwAAAAAAAAACAAAAAAAAAAAAAAAAAAA==

> <PUBCHEM_IUPAC_OPENEYE_NAME>
4-(2-hydroxy-1,1-dimethyl-ethyl)-N-(6-imidazol-1-ylimidazo[1,2-a]pyridin-2-yl)benzamide

> <PUBCHEM_IUPAC_CAS_NAME>
4-(1-hydroxy-2-methylpropan-2-yl)-N-[6-(1-imidazolyl)-2-imidazo[1,2-a]pyridinyl]benzamide

> <PUBCHEM_IUPAC_NAME>
4-(1-hydroxy-2-methylpropan-2-yl)-N-(6-imidazol-1-ylimidazo[1,2-a]pyridin-2-yl)benzamide

> <PUBCHEM_IUPAC_SYSTEMATIC_NAME>
N-(6-imidazol-1-ylimidazo[1,2-a]pyridin-2-yl)-4-(2-methyl-1-oxidanyl-propan-2-yl)benzamide

> <PUBCHEM_IUPAC_TRADITIONAL_NAME>
4-(2-hydroxy-1,1-dimethyl-ethyl)-N-(6-imidazol-1-ylimidazo[1,2-a]pyridin-2-yl)benzamide

> <PUBCHEM_IUPAC_INCHI>
InChI=1S/C21H21N5O2/c1-21(2,13-27)16-5-3-15(4-6-16)20(28)24-18-12-26-11-17(7-8-19(26)23-18)25-10-9-22-14-25/h3-12,14,27H,13H2,1-2H3,(H,24,28)

> <PUBCHEM_IUPAC_INCHIKEY>
TWTWHRSEPRILHV-UHFFFAOYSA-N

> <PUBCHEM_XLOGP3_AA>
3.1

> <PUBCHEM_EXACT_MASS>
375.17

> <PUBCHEM_MOLECULAR_FORMULA>
C21H21N5O2

> <PUBCHEM_MOLECULAR_WEIGHT>
375.432

> <PUBCHEM_OPENEYE_CAN_SMILES>
CC(C)(CO)C1=CC=C(C=C1)C(=O)NC2=CN3C=C(C=CC3=N2)N4C=CN=C4

> <PUBCHEM_OPENEYE_ISO_SMILES>
CC(C)(CO)C1=CC=C(C=C1)C(=O)NC2=CN3C=C(C=CC3=N2)N4C=CN=C4

> <PUBCHEM_CACTVS_TPSA>
84.4

> <PUBCHEM_MONOISOTOPIC_WEIGHT>
375.17

> <PUBCHEM_TOTAL_CHARGE>
0

> <PUBCHEM_HEAVY_ATOM_COUNT>
28

> <PUBCHEM_ATOM_DEF_STEREO_COUNT>
0

> <PUBCHEM_ATOM_UDEF_STEREO_COUNT>
0

> <PUBCHEM_BOND_DEF_STEREO_COUNT>
0

> <PUBCHEM_BOND_UDEF_STEREO_COUNT>
0

> <PUBCHEM_ISOTOPIC_ATOM_COUNT>
0

> <PUBCHEM_COMPONENT_COUNT>
1

> <PUBCHEM_CACTVS_TAUTO_COUNT>
2

> <PUBCHEM_COORDINATE_TYPE>
1
5
255

> <PUBCHEM_BONDANNOTATIONS>
13  16  8
14  17  8
15  16  8
15  17  8
19  24  8
20  22  8
21  23  8
21  25  8
24  25  8
26  28  8
3  19  8
3  22  8
3  23  8
5  19  8
5  20  8
6  26  8
6  27  8
7  27  8
7  28  8
9  13  8
9  14  8

$$$$
59175648
  -OEChem-11021604552D

 41 43  0     0  0  0  0  0  0999 V2000
    2.0000    1.4330    0.0000 F   0  0  0  0  0  0  0  0  0  0  0  0
    7.1279   -1.2990    0.0000 O   0  0  0  0  0  0  0  0  0  0  0  0
    4.5981    0.9330    0.0000 N   0  0  0  0  0  0  0  0  0  0  0  0
    7.1279    0.4330    0.0000 N   0  0  0  0  0  0  0  0  0  0  0  0
    5.5443   -0.3717    0.0000 N   0  0  0  0  0  0  0  0  0  0  0  0
   11.6279   -0.4330    0.0000 C   0  0  0  0  0  0  0  0  0  0  0  0
   10.6279   -0.4330    0.0000 C   0  0  0  0  0  0  0  0  0  0  0  0
   12.6279   -0.4330    0.0000 C   0  0  0  0  0  0  0  0  0  0  0  0
   11.6279   -1.4330    0.0000 C   0  0  0  0  0  0  0  0  0  0  0  0
   11.6279    0.5670    0.0000 C   0  0  0  0  0  0  0  0  0  0  0  0
   10.1279   -1.2990    0.0000 C   0  0  0  0  0  0  0  0  0  0  0  0
   10.1279    0.4330    0.0000 C   0  0  0  0  0  0  0  0  0  0  0  0
    8.6279   -0.4330    0.0000 C   0  0  0  0  0  0  0  0  0  0  0  0
    9.1279   -1.2990    0.0000 C   0  0  0  0  0  0  0  0  0  0  0  0
    9.1279    0.4330    0.0000 C   0  0  0  0  0  0  0  0  0  0  0  0
    7.6279   -0.4330    0.0000 C   0  0  0  0  0  0  0  0  0  0  0  0
    6.1279    0.4330    0.0000 C   0  0  0  0  0  0  0  0  0  0  0  0
    4.5981   -0.0670    0.0000 C   0  0  0  0  0  0  0  0  0  0  0  0
    5.5443    1.2377    0.0000 C   0  0  0  0  0  0  0  0  0  0  0  0
    3.7320    1.4330    0.0000 C   0  0  0  0  0  0  0  0  0  0  0  0
    3.7320   -0.5670    0.0000 C   0  0  0  0  0  0  0  0  0  0  0  0
    2.8660    0.9330    0.0000 C   0  0  0  0  0  0  0  0  0  0  0  0
    2.8660   -0.0670    0.0000 C   0  0  0  0  0  0  0  0  0  0  0  0
   12.6279   -1.0530    0.0000 H   0  0  0  0  0  0  0  0  0  0  0  0
   12.2479    0.5670    0.0000 H   0  0  0  0  0  0  0  0  0  0  0  0
   11.6279    1.1870    0.0000 H   0  0  0  0  0  0  0  0  0  0  0  0
   11.0079    0.5670    0.0000 H   0  0  0  0  0  0  0  0  0  0  0  0
   11.0079   -1.4330    0.0000 H   0  0  0  0  0  0  0  0  0  0  0  0
   11.6279   -2.0530    0.0000 H   0  0  0  0  0  0  0  0  0  0  0  0
   12.2479   -1.4330    0.0000 H   0  0  0  0  0  0  0  0  0  0  0  0
   13.2479   -0.4330    0.0000 H   0  0  0  0  0  0  0  0  0  0  0  0
   12.6279    0.1870    0.0000 H   0  0  0  0  0  0  0  0  0  0  0  0
   10.4379   -1.8360    0.0000 H   0  0  0  0  0  0  0  0  0  0  0  0
   10.4379    0.9699    0.0000 H   0  0  0  0  0  0  0  0  0  0  0  0
    8.8179   -1.8360    0.0000 H   0  0  0  0  0  0  0  0  0  0  0  0
    8.8179    0.9699    0.0000 H   0  0  0  0  0  0  0  0  0  0  0  0
    7.4379    0.9699    0.0000 H   0  0  0  0  0  0  0  0  0  0  0  0
    5.7369    1.8271    0.0000 H   0  0  0  0  0  0  0  0  0  0  0  0
    3.7320    2.0530    0.0000 H   0  0  0  0  0  0  0  0  0  0  0  0
    3.7320   -1.1870    0.0000 H   0  0  0  0  0  0  0  0  0  0  0  0
    2.3291   -0.3770    0.0000 H   0  0  0  0  0  0  0  0  0  0  0  0
  1 22  1  0  0  0  0
  2 16  2  0  0  0  0
  3 18  1  0  0  0  0
  3 19  1  0  0  0  0
  3 20  1  0  0  0  0
  4 16  1  0  0  0  0
  4 17  1  0  0  0  0
  4 37  1  0  0  0  0
  5 17  1  0  0  0  0
  5 18  2  0  0  0  0
  6  7  1  0  0  0  0
  6  8  1  0  0  0  0
  6  9  1  0  0  0  0
  6 10  1  0  0  0  0
  7 11  2  0  0  0  0
  7 12  1  0  0  0  0
  8 24  1  0  0  0  0
  8 31  1  0  0  0  0
  8 32  1  0  0  0  0
  9 28  1  0  0  0  0
  9 29  1  0  0  0  0
  9 30  1  0  0  0  0
 10 25  1  0  0  0  0
 10 26  1  0  0  0  0
 10 27  1  0  0  0  0
 11 14  1  0  0  0  0
 11 33  1  0  0  0  0
 12 15  2  0  0  0  0
 12 34  1  0  0  0  0
 13 14  2  0  0  0  0
 13 15  1  0  0  0  0
 13 16  1  0  0  0  0
 14 35  1  0  0  0  0
 15 36  1  0  0  0  0
 17 19  2  0  0  0  0
 18 21  1  0  0  0  0
 19 38  1  0  0  0  0
 20 22  2  0  0  0  0
 20 39  1  0  0  0  0
 21 23  2  0  0  0  0
 21 40  1  0  0  0  0
 22 23  1  0  0  0  0
 23 41  1  0  0  0  0
M  END
> <PUBCHEM_COMPOUND_CID>
59175648

> <PUBCHEM_COMPOUND_CANONICALIZED>
1

> <PUBCHEM_CACTVS_COMPLEXITY>
429

> <PUBCHEM_CACTVS_HBOND_ACCEPTOR>
3

> <PUBCHEM_CACTVS_HBOND_DONOR>
1

> <PUBCHEM_CACTVS_ROTATABLE_BOND>
3

> <PUBCHEM_CACTVS_SUBSKEYS>
AAADceB7IQAAAAAAAAAAAAAAAAAAAWAAAAA8QAAAAAAAAFgB8AAAHwAQAAAADgDBmww/sJ/MGACoAjN3dACCgC01EqAJ2CE4dNiIaPLAnZGUIQholQLIyacYiMCPwAAAAAAAAACAAAAAAAAAAAAAAAAAAA==

> <PUBCHEM_IUPAC_OPENEYE_NAME>
4-tert-butyl-N-(6-fluoroimidazo[1,2-a]pyridin-2-yl)benzamide

> <PUBCHEM_IUPAC_CAS_NAME>
4-tert-butyl-N-(6-fluoro-2-imidazo[1,2-a]pyridinyl)benzamide

> <PUBCHEM_IUPAC_NAME>
4-tert-butyl-N-(6-fluoroimidazo[1,2-a]pyridin-2-yl)benzamide

> <PUBCHEM_IUPAC_SYSTEMATIC_NAME>
4-tert-butyl-N-(6-fluoranylimidazo[1,2-a]pyridin-2-yl)benzamide

> <PUBCHEM_IUPAC_TRADITIONAL_NAME>
4-tert-butyl-N-(6-fluoroimidazo[1,2-a]pyridin-2-yl)benzamide

> <PUBCHEM_IUPAC_INCHI>
InChI=1S/C18H18FN3O/c1-18(2,3)13-6-4-12(5-7-13)17(23)21-15-11-22-10-14(19)8-9-16(22)20-15/h4-11H,1-3H3,(H,21,23)

> <PUBCHEM_IUPAC_INCHIKEY>
ASCZQBOCPAWSJS-UHFFFAOYSA-N

> <PUBCHEM_XLOGP3_AA>
4.7

> <PUBCHEM_EXACT_MASS>
311.143

> <PUBCHEM_MOLECULAR_FORMULA>
C18H18FN3O

> <PUBCHEM_MOLECULAR_WEIGHT>
311.36

> <PUBCHEM_OPENEYE_CAN_SMILES>
CC(C)(C)C1=CC=C(C=C1)C(=O)NC2=CN3C=C(C=CC3=N2)F

> <PUBCHEM_OPENEYE_ISO_SMILES>
CC(C)(C)C1=CC=C(C=C1)C(=O)NC2=CN3C=C(C=CC3=N2)F

> <PUBCHEM_CACTVS_TPSA>
46.4

> <PUBCHEM_MONOISOTOPIC_WEIGHT>
311.143

> <PUBCHEM_TOTAL_CHARGE>
0

> <PUBCHEM_HEAVY_ATOM_COUNT>
23

> <PUBCHEM_ATOM_DEF_STEREO_COUNT>
0

> <PUBCHEM_ATOM_UDEF_STEREO_COUNT>
0

> <PUBCHEM_BOND_DEF_STEREO_COUNT>
0

> <PUBCHEM_BOND_UDEF_STEREO_COUNT>
0

> <PUBCHEM_ISOTOPIC_ATOM_COUNT>
0

> <PUBCHEM_COMPONENT_COUNT>
1

> <PUBCHEM_CACTVS_TAUTO_COUNT>
2

> <PUBCHEM_COORDINATE_TYPE>
1
5
255

> <PUBCHEM_BONDANNOTATIONS>
11  14  8
12  15  8
13  14  8
13  15  8
17  19  8
18  21  8
20  22  8
21  23  8
22  23  8
3  18  8
3  19  8
3  20  8
5  17  8
5  18  8
7  11  8
7  12  8

$$$$
59175292
  -OEChem-11021604552D

 50 53  0     0  0  0  0  0  0999 V2000
    8.8600   -2.0490    0.0000 O   0  0  0  0  0  0  0  0  0  0  0  0
    6.3301    0.1830    0.0000 N   0  0  0  0  0  0  0  0  0  0  0  0
    8.8600   -0.3170    0.0000 N   0  0  0  0  0  0  0  0  0  0  0  0
    7.2764   -1.1217    0.0000 N   0  0  0  0  0  0  0  0  0  0  0  0
    2.0000    0.6830    0.0000 N   0  0  0  0  0  0  0  0  0  0  0  0
   13.3600   -1.1830    0.0000 C   0  0  0  0  0  0  0  0  0  0  0  0
   12.3600   -1.1830    0.0000 C   0  0  0  0  0  0  0  0  0  0  0  0
   14.3600   -1.1830    0.0000 C   0  0  0  0  0  0  0  0  0  0  0  0
   13.3600   -2.1830    0.0000 C   0  0  0  0  0  0  0  0  0  0  0  0
   13.3600   -0.1830    0.0000 C   0  0  0  0  0  0  0  0  0  0  0  0
   11.8600   -0.3170    0.0000 C   0  0  0  0  0  0  0  0  0  0  0  0
   11.8600   -2.0490    0.0000 C   0  0  0  0  0  0  0  0  0  0  0  0
   10.3600   -1.1830    0.0000 C   0  0  0  0  0  0  0  0  0  0  0  0
   10.8600   -0.3170    0.0000 C   0  0  0  0  0  0  0  0  0  0  0  0
   10.8600   -2.0490    0.0000 C   0  0  0  0  0  0  0  0  0  0  0  0
    9.3600   -1.1830    0.0000 C   0  0  0  0  0  0  0  0  0  0  0  0
    6.3301   -0.8170    0.0000 C   0  0  0  0  0  0  0  0  0  0  0  0
    7.8600   -0.3170    0.0000 C   0  0  0  0  0  0  0  0  0  0  0  0
    7.2764    0.4877    0.0000 C   0  0  0  0  0  0  0  0  0  0  0  0
    4.5981    0.1830    0.0000 C   0  0  0  0  0  0  0  0  0  0  0  0
    5.4641    0.6830    0.0000 C   0  0  0  0  0  0  0  0  0  0  0  0
    5.4641   -1.3170    0.0000 C   0  0  0  0  0  0  0  0  0  0  0  0
    4.5981   -0.8170    0.0000 C   0  0  0  0  0  0  0  0  0  0  0  0
    3.7320    0.6830    0.0000 C   0  0  0  0  0  0  0  0  0  0  0  0
    3.7320    1.6830    0.0000 C   0  0  0  0  0  0  0  0  0  0  0  0
    2.8660    0.1830    0.0000 C   0  0  0  0  0  0  0  0  0  0  0  0
    2.8660    2.1830    0.0000 C   0  0  0  0  0  0  0  0  0  0  0  0
    2.0000    1.6830    0.0000 C   0  0  0  0  0  0  0  0  0  0  0  0
   13.9800   -0.1830    0.0000 H   0  0  0  0  0  0  0  0  0  0  0  0
   14.3600   -1.8030    0.0000 H   0  0  0  0  0  0  0  0  0  0  0  0
   14.9800   -1.1830    0.0000 H   0  0  0  0  0  0  0  0  0  0  0  0
   14.3600   -0.5630    0.0000 H   0  0  0  0  0  0  0  0  0  0  0  0
   13.3600    0.4370    0.0000 H   0  0  0  0  0  0  0  0  0  0  0  0
   12.7400   -0.1830    0.0000 H   0  0  0  0  0  0  0  0  0  0  0  0
   12.7400   -2.1830    0.0000 H   0  0  0  0  0  0  0  0  0  0  0  0
   13.3600   -2.8030    0.0000 H   0  0  0  0  0  0  0  0  0  0  0  0
   13.9800   -2.1830    0.0000 H   0  0  0  0  0  0  0  0  0  0  0  0
   12.1700    0.2199    0.0000 H   0  0  0  0  0  0  0  0  0  0  0  0
   12.1700   -2.5860    0.0000 H   0  0  0  0  0  0  0  0  0  0  0  0
   10.5500    0.2199    0.0000 H   0  0  0  0  0  0  0  0  0  0  0  0
   10.5500   -2.5860    0.0000 H   0  0  0  0  0  0  0  0  0  0  0  0
    7.4690    1.0771    0.0000 H   0  0  0  0  0  0  0  0  0  0  0  0
    5.4641    1.3030    0.0000 H   0  0  0  0  0  0  0  0  0  0  0  0
    9.1700    0.2199    0.0000 H   0  0  0  0  0  0  0  0  0  0  0  0
    5.4641   -1.9370    0.0000 H   0  0  0  0  0  0  0  0  0  0  0  0
    4.0611   -1.1270    0.0000 H   0  0  0  0  0  0  0  0  0  0  0  0
    4.2690    1.9930    0.0000 H   0  0  0  0  0  0  0  0  0  0  0  0
    2.8660   -0.4370    0.0000 H   0  0  0  0  0  0  0  0  0  0  0  0
    2.8660    2.8030    0.0000 H   0  0  0  0  0  0  0  0  0  0  0  0
    1.4631    1.9930    0.0000 H   0  0  0  0  0  0  0  0  0  0  0  0
  1 16  2  0  0  0  0
  2 17  1  0  0  0  0
  2 19  1  0  0  0  0
  2 21  1  0  0  0  0
  3 16  1  0  0  0  0
  3 18  1  0  0  0  0
  3 44  1  0  0  0  0
  4 17  2  0  0  0  0
  4 18  1  0  0  0  0
  5 26  1  0  0  0  0
  5 28  2  0  0  0  0
  6  7  1  0  0  0  0
  6  8  1  0  0  0  0
  6  9  1  0  0  0  0
  6 10  1  0  0  0  0
  7 11  2  0  0  0  0
  7 12  1  0  0  0  0
  8 30  1  0  0  0  0
  8 31  1  0  0  0  0
  8 32  1  0  0  0  0
  9 35  1  0  0  0  0
  9 36  1  0  0  0  0
  9 37  1  0  0  0  0
 10 29  1  0  0  0  0
 10 33  1  0  0  0  0
 10 34  1  0  0  0  0
 11 14  1  0  0  0  0
 11 38  1  0  0  0  0
 12 15  2  0  0  0  0
 12 39  1  0  0  0  0
 13 14  2  0  0  0  0
 13 15  1  0  0  0  0
 13 16  1  0  0  0  0
 14 40  1  0  0  0  0
 15 41  1  0  0  0  0
 17 22  1  0  0  0  0
 18 19  2  0  0  0  0
 19 42  1  0  0  0  0
 20 21  2  0  0  0  0
 20 23  1  0  0  0  0
 20 24  1  0  0  0  0
 21 43  1  0  0  0  0
 22 23  2  0  0  0  0
 22 45  1  0  0  0  0
 23 46  1  0  0  0  0
 24 25  1  0  0  0  0
 24 26  2  0  0  0  0
 25 27  2  0  0  0  0
 25 47  1  0  0  0  0
 26 48  1  0  0  0  0
 27 28  1  0  0  0  0
 27 49  1  0  0  0  0
 28 50  1  0  0  0  0
M  END
> <PUBCHEM_COMPOUND_CID>
59175292

> <PUBCHEM_COMPOUND_CANONICALIZED>
1

> <PUBCHEM_CACTVS_COMPLEXITY>
537

> <PUBCHEM_CACTVS_HBOND_ACCEPTOR>
3

> <PUBCHEM_CACTVS_HBOND_DONOR>
1

> <PUBCHEM_CACTVS_ROTATABLE_BOND>
4

> <PUBCHEM_CACTVS_SUBSKEYS>
AAADceB7oAAAAAAAAAAAAAAAAAAAAWAAAAA8WIAAAAAAAFgB/AAAHgAQAAAADgDBmwQ/sJ/MGACoAjN3dACCgC01EqAJ2CE4dNiIaPLAnZGUIQholQLIyacYiMCPwAAAAAAAAACAAAAAAAAAAAAAAAAAAA==

> <PUBCHEM_IUPAC_OPENEYE_NAME>
4-tert-butyl-N-[6-(3-pyridyl)imidazo[1,2-a]pyridin-2-yl]benzamide

> <PUBCHEM_IUPAC_CAS_NAME>
4-tert-butyl-N-[6-(3-pyridinyl)-2-imidazo[1,2-a]pyridinyl]benzamide

> <PUBCHEM_IUPAC_NAME>
4-tert-butyl-N-(6-pyridin-3-ylimidazo[1,2-a]pyridin-2-yl)benzamide

> <PUBCHEM_IUPAC_SYSTEMATIC_NAME>
4-tert-butyl-N-(6-pyridin-3-ylimidazo[1,2-a]pyridin-2-yl)benzamide

> <PUBCHEM_IUPAC_TRADITIONAL_NAME>
4-tert-butyl-N-[6-(3-pyridyl)imidazo[1,2-a]pyridin-2-yl]benzamide

> <PUBCHEM_IUPAC_INCHI>
InChI=1S/C23H22N4O/c1-23(2,3)19-9-6-16(7-10-19)22(28)26-20-15-27-14-18(8-11-21(27)25-20)17-5-4-12-24-13-17/h4-15H,1-3H3,(H,26,28)

> <PUBCHEM_IUPAC_INCHIKEY>
HRYXZJRQXNMUTE-UHFFFAOYSA-N

> <PUBCHEM_XLOGP3_AA>
5.2

> <PUBCHEM_EXACT_MASS>
370.179

> <PUBCHEM_MOLECULAR_FORMULA>
C23H22N4O

> <PUBCHEM_MOLECULAR_WEIGHT>
370.456

> <PUBCHEM_OPENEYE_CAN_SMILES>
CC(C)(C)C1=CC=C(C=C1)C(=O)NC2=CN3C=C(C=CC3=N2)C4=CN=CC=C4

> <PUBCHEM_OPENEYE_ISO_SMILES>
CC(C)(C)C1=CC=C(C=C1)C(=O)NC2=CN3C=C(C=CC3=N2)C4=CN=CC=C4

> <PUBCHEM_CACTVS_TPSA>
59.3

> <PUBCHEM_MONOISOTOPIC_WEIGHT>
370.179

> <PUBCHEM_TOTAL_CHARGE>
0

> <PUBCHEM_HEAVY_ATOM_COUNT>
28

> <PUBCHEM_ATOM_DEF_STEREO_COUNT>
0

> <PUBCHEM_ATOM_UDEF_STEREO_COUNT>
0

> <PUBCHEM_BOND_DEF_STEREO_COUNT>
0

> <PUBCHEM_BOND_UDEF_STEREO_COUNT>
0

> <PUBCHEM_ISOTOPIC_ATOM_COUNT>
0

> <PUBCHEM_COMPONENT_COUNT>
1

> <PUBCHEM_CACTVS_TAUTO_COUNT>
2

> <PUBCHEM_COORDINATE_TYPE>
1
5
255

> <PUBCHEM_BONDANNOTATIONS>
11  14  8
12  15  8
13  14  8
13  15  8
17  22  8
18  19  8
2  17  8
2  19  8
2  21  8
20  21  8
20  23  8
22  23  8
24  25  8
24  26  8
25  27  8
27  28  8
4  17  8
4  18  8
5  26  8
5  28  8
7  11  8
7  12  8

$$$$
59175319
  -OEChem-11021604552D

 51 54  0     0  0  0  0  0  0999 V2000
    8.8600   -2.0490    0.0000 O   0  0  0  0  0  0  0  0  0  0  0  0
    6.3301    0.1830    0.0000 N   0  0  0  0  0  0  0  0  0  0  0  0
    8.8600   -0.3170    0.0000 N   0  0  0  0  0  0  0  0  0  0  0  0
    7.2764   -1.1217    0.0000 N   0  0  0  0  0  0  0  0  0  0  0  0
   13.3600   -1.1830    0.0000 C   0  0  0  0  0  0  0  0  0  0  0  0
   12.3600   -1.1830    0.0000 C   0  0  0  0  0  0  0  0  0  0  0  0
   14.3600   -1.1830    0.0000 C   0  0  0  0  0  0  0  0  0  0  0  0
   13.3600   -2.1830    0.0000 C   0  0  0  0  0  0  0  0  0  0  0  0
   13.3600   -0.1830    0.0000 C   0  0  0  0  0  0  0  0  0  0  0  0
   11.8600   -0.3170    0.0000 C   0  0  0  0  0  0  0  0  0  0  0  0
   11.8600   -2.0490    0.0000 C   0  0  0  0  0  0  0  0  0  0  0  0
   10.3600   -1.1830    0.0000 C   0  0  0  0  0  0  0  0  0  0  0  0
   10.8600   -0.3170    0.0000 C   0  0  0  0  0  0  0  0  0  0  0  0
   10.8600   -2.0490    0.0000 C   0  0  0  0  0  0  0  0  0  0  0  0
    6.3301   -0.8170    0.0000 C   0  0  0  0  0  0  0  0  0  0  0  0
    9.3600   -1.1830    0.0000 C   0  0  0  0  0  0  0  0  0  0  0  0
    7.8600   -0.3170    0.0000 C   0  0  0  0  0  0  0  0  0  0  0  0
    4.5981    0.1830    0.0000 C   0  0  0  0  0  0  0  0  0  0  0  0
    7.2764    0.4877    0.0000 C   0  0  0  0  0  0  0  0  0  0  0  0
    5.4641    0.6830    0.0000 C   0  0  0  0  0  0  0  0  0  0  0  0
    5.4641   -1.3170    0.0000 C   0  0  0  0  0  0  0  0  0  0  0  0
    4.5981   -0.8170    0.0000 C   0  0  0  0  0  0  0  0  0  0  0  0
    3.7320    0.6830    0.0000 C   0  0  0  0  0  0  0  0  0  0  0  0
    3.7320    1.6830    0.0000 C   0  0  0  0  0  0  0  0  0  0  0  0
    2.8660    0.1830    0.0000 C   0  0  0  0  0  0  0  0  0  0  0  0
    2.8660    2.1830    0.0000 C   0  0  0  0  0  0  0  0  0  0  0  0
    2.0000    0.6830    0.0000 C   0  0  0  0  0  0  0  0  0  0  0  0
    2.0000    1.6830    0.0000 C   0  0  0  0  0  0  0  0  0  0  0  0
   13.9800   -0.1830    0.0000 H   0  0  0  0  0  0  0  0  0  0  0  0
   14.3600   -1.8030    0.0000 H   0  0  0  0  0  0  0  0  0  0  0  0
   14.9800   -1.1830    0.0000 H   0  0  0  0  0  0  0  0  0  0  0  0
   14.3600   -0.5630    0.0000 H   0  0  0  0  0  0  0  0  0  0  0  0
   13.3600    0.4370    0.0000 H   0  0  0  0  0  0  0  0  0  0  0  0
   12.7400   -0.1830    0.0000 H   0  0  0  0  0  0  0  0  0  0  0  0
   12.7400   -2.1830    0.0000 H   0  0  0  0  0  0  0  0  0  0  0  0
   13.3600   -2.8030    0.0000 H   0  0  0  0  0  0  0  0  0  0  0  0
   13.9800   -2.1830    0.0000 H   0  0  0  0  0  0  0  0  0  0  0  0
   12.1700    0.2199    0.0000 H   0  0  0  0  0  0  0  0  0  0  0  0
   12.1700   -2.5860    0.0000 H   0  0  0  0  0  0  0  0  0  0  0  0
   10.5500    0.2199    0.0000 H   0  0  0  0  0  0  0  0  0  0  0  0
   10.5500   -2.5860    0.0000 H   0  0  0  0  0  0  0  0  0  0  0  0
    7.4690    1.0771    0.0000 H   0  0  0  0  0  0  0  0  0  0  0  0
    5.4641    1.3030    0.0000 H   0  0  0  0  0  0  0  0  0  0  0  0
    9.1700    0.2199    0.0000 H   0  0  0  0  0  0  0  0  0  0  0  0
    5.4641   -1.9370    0.0000 H   0  0  0  0  0  0  0  0  0  0  0  0
    4.0611   -1.1270    0.0000 H   0  0  0  0  0  0  0  0  0  0  0  0
    4.2690    1.9930    0.0000 H   0  0  0  0  0  0  0  0  0  0  0  0
    2.8660   -0.4370    0.0000 H   0  0  0  0  0  0  0  0  0  0  0  0
    2.8660    2.8030    0.0000 H   0  0  0  0  0  0  0  0  0  0  0  0
    1.4631    0.3730    0.0000 H   0  0  0  0  0  0  0  0  0  0  0  0
    1.4631    1.9930    0.0000 H   0  0  0  0  0  0  0  0  0  0  0  0
  1 16  2  0  0  0  0
  2 15  1  0  0  0  0
  2 19  1  0  0  0  0
  2 20  1  0  0  0  0
  3 16  1  0  0  0  0
  3 17  1  0  0  0  0
  3 44  1  0  0  0  0
  4 15  2  0  0  0  0
  4 17  1  0  0  0  0
  5  6  1  0  0  0  0
  5  7  1  0  0  0  0
  5  8  1  0  0  0  0
  5  9  1  0  0  0  0
  6 10  2  0  0  0  0
  6 11  1  0  0  0  0
  7 30  1  0  0  0  0
  7 31  1  0  0  0  0
  7 32  1  0  0  0  0
  8 35  1  0  0  0  0
  8 36  1  0  0  0  0
  8 37  1  0  0  0  0
  9 29  1  0  0  0  0
  9 33  1  0  0  0  0
  9 34  1  0  0  0  0
 10 13  1  0  0  0  0
 10 38  1  0  0  0  0
 11 14  2  0  0  0  0
 11 39  1  0  0  0  0
 12 13  2  0  0  0  0
 12 14  1  0  0  0  0
 12 16  1  0  0  0  0
 13 40  1  0  0  0  0
 14 41  1  0  0  0  0
 15 21  1  0  0  0  0
 17 19  2  0  0  0  0
 18 20  2  0  0  0  0
 18 22  1  0  0  0  0
 18 23  1  0  0  0  0
 19 42  1  0  0  0  0
 20 43  1  0  0  0  0
 21 22  2  0  0  0  0
 21 45  1  0  0  0  0
 22 46  1  0  0  0  0
 23 24  2  0  0  0  0
 23 25  1  0  0  0  0
 24 26  1  0  0  0  0
 24 47  1  0  0  0  0
 25 27  2  0  0  0  0
 25 48  1  0  0  0  0
 26 28  2  0  0  0  0
 26 49  1  0  0  0  0
 27 28  1  0  0  0  0
 27 50  1  0  0  0  0
 28 51  1  0  0  0  0
M  END
> <PUBCHEM_COMPOUND_CID>
59175319

> <PUBCHEM_COMPOUND_CANONICALIZED>
1

> <PUBCHEM_CACTVS_COMPLEXITY>
529

> <PUBCHEM_CACTVS_HBOND_ACCEPTOR>
2

> <PUBCHEM_CACTVS_HBOND_DONOR>
1

> <PUBCHEM_CACTVS_ROTATABLE_BOND>
4

> <PUBCHEM_CACTVS_SUBSKEYS>
AAADceB7IAAAAAAAAAAAAAAAAAAAAWAAAAA8YIAAAAAAAFgB9AAAHgAQAAAADgDBmwQ/sJ/MGACoAjN3dACCgC01EqAJ2CE4dNiIaPLAnZGUIQholQLIyacYiMCPwAAAAAAAAACAAAAAAAAAAAAAAAAAAA==

> <PUBCHEM_IUPAC_OPENEYE_NAME>
4-tert-butyl-N-(6-phenylimidazo[1,2-a]pyridin-2-yl)benzamide

> <PUBCHEM_IUPAC_CAS_NAME>
4-tert-butyl-N-(6-phenyl-2-imidazo[1,2-a]pyridinyl)benzamide

> <PUBCHEM_IUPAC_NAME>
4-tert-butyl-N-(6-phenylimidazo[1,2-a]pyridin-2-yl)benzamide

> <PUBCHEM_IUPAC_SYSTEMATIC_NAME>
4-tert-butyl-N-(6-phenylimidazo[1,2-a]pyridin-2-yl)benzamide

> <PUBCHEM_IUPAC_TRADITIONAL_NAME>
4-tert-butyl-N-(6-phenylimidazo[1,2-a]pyridin-2-yl)benzamide

> <PUBCHEM_IUPAC_INCHI>
InChI=1S/C24H23N3O/c1-24(2,3)20-12-9-18(10-13-20)23(28)26-21-16-27-15-19(11-14-22(27)25-21)17-7-5-4-6-8-17/h4-16H,1-3H3,(H,26,28)

> <PUBCHEM_IUPAC_INCHIKEY>
JUJMCVCAHFVRPW-UHFFFAOYSA-N

> <PUBCHEM_XLOGP3_AA>
6.2

> <PUBCHEM_EXACT_MASS>
369.184

> <PUBCHEM_MOLECULAR_FORMULA>
C24H23N3O

> <PUBCHEM_MOLECULAR_WEIGHT>
369.468

> <PUBCHEM_OPENEYE_CAN_SMILES>
CC(C)(C)C1=CC=C(C=C1)C(=O)NC2=CN3C=C(C=CC3=N2)C4=CC=CC=C4

> <PUBCHEM_OPENEYE_ISO_SMILES>
CC(C)(C)C1=CC=C(C=C1)C(=O)NC2=CN3C=C(C=CC3=N2)C4=CC=CC=C4

> <PUBCHEM_CACTVS_TPSA>
46.4

> <PUBCHEM_MONOISOTOPIC_WEIGHT>
369.184

> <PUBCHEM_TOTAL_CHARGE>
0

> <PUBCHEM_HEAVY_ATOM_COUNT>
28

> <PUBCHEM_ATOM_DEF_STEREO_COUNT>
0

> <PUBCHEM_ATOM_UDEF_STEREO_COUNT>
0

> <PUBCHEM_BOND_DEF_STEREO_COUNT>
0

> <PUBCHEM_BOND_UDEF_STEREO_COUNT>
0

> <PUBCHEM_ISOTOPIC_ATOM_COUNT>
0

> <PUBCHEM_COMPONENT_COUNT>
1

> <PUBCHEM_CACTVS_TAUTO_COUNT>
2

> <PUBCHEM_COORDINATE_TYPE>
1
5
255

> <PUBCHEM_BONDANNOTATIONS>
10  13  8
11  14  8
12  13  8
12  14  8
15  21  8
17  19  8
18  20  8
18  22  8
2  15  8
2  19  8
2  20  8
21  22  8
23  24  8
23  25  8
24  26  8
25  27  8
26  28  8
27  28  8
4  15  8
4  17  8
6  10  8
6  11  8

$$$$
59175651
  -OEChem-11021604552D

 41 43  0     0  0  0  0  0  0999 V2000
    2.0000    1.4330    0.0000 Cl  0  0  0  0  0  0  0  0  0  0  0  0
    7.1279   -1.2990    0.0000 O   0  0  0  0  0  0  0  0  0  0  0  0
    4.5981    0.9330    0.0000 N   0  0  0  0  0  0  0  0  0  0  0  0
    7.1279    0.4330    0.0000 N   0  0  0  0  0  0  0  0  0  0  0  0
    5.5443   -0.3717    0.0000 N   0  0  0  0  0  0  0  0  0  0  0  0
   11.6279   -0.4330    0.0000 C   0  0  0  0  0  0  0  0  0  0  0  0
   10.6279   -0.4330    0.0000 C   0  0  0  0  0  0  0  0  0  0  0  0
   12.6279   -0.4330    0.0000 C   0  0  0  0  0  0  0  0  0  0  0  0
   11.6279   -1.4330    0.0000 C   0  0  0  0  0  0  0  0  0  0  0  0
   11.6279    0.5670    0.0000 C   0  0  0  0  0  0  0  0  0  0  0  0
   10.1279   -1.2990    0.0000 C   0  0  0  0  0  0  0  0  0  0  0  0
   10.1279    0.4330    0.0000 C   0  0  0  0  0  0  0  0  0  0  0  0
    8.6279   -0.4330    0.0000 C   0  0  0  0  0  0  0  0  0  0  0  0
    9.1279   -1.2990    0.0000 C   0  0  0  0  0  0  0  0  0  0  0  0
    9.1279    0.4330    0.0000 C   0  0  0  0  0  0  0  0  0  0  0  0
    7.6279   -0.4330    0.0000 C   0  0  0  0  0  0  0  0  0  0  0  0
    6.1279    0.4330    0.0000 C   0  0  0  0  0  0  0  0  0  0  0  0
    4.5981   -0.0670    0.0000 C   0  0  0  0  0  0  0  0  0  0  0  0
    5.5443    1.2377    0.0000 C   0  0  0  0  0  0  0  0  0  0  0  0
    3.7320    1.4330    0.0000 C   0  0  0  0  0  0  0  0  0  0  0  0
    3.7320   -0.5670    0.0000 C   0  0  0  0  0  0  0  0  0  0  0  0
    2.8660    0.9330    0.0000 C   0  0  0  0  0  0  0  0  0  0  0  0
    2.8660   -0.0670    0.0000 C   0  0  0  0  0  0  0  0  0  0  0  0
   12.6279   -1.0530    0.0000 H   0  0  0  0  0  0  0  0  0  0  0  0
   12.2479    0.5670    0.0000 H   0  0  0  0  0  0  0  0  0  0  0  0
   11.6279    1.1870    0.0000 H   0  0  0  0  0  0  0  0  0  0  0  0
   11.0079    0.5670    0.0000 H   0  0  0  0  0  0  0  0  0  0  0  0
   11.0079   -1.4330    0.0000 H   0  0  0  0  0  0  0  0  0  0  0  0
   11.6279   -2.0530    0.0000 H   0  0  0  0  0  0  0  0  0  0  0  0
   12.2479   -1.4330    0.0000 H   0  0  0  0  0  0  0  0  0  0  0  0
   13.2479   -0.4330    0.0000 H   0  0  0  0  0  0  0  0  0  0  0  0
   12.6279    0.1870    0.0000 H   0  0  0  0  0  0  0  0  0  0  0  0
   10.4379   -1.8360    0.0000 H   0  0  0  0  0  0  0  0  0  0  0  0
   10.4379    0.9699    0.0000 H   0  0  0  0  0  0  0  0  0  0  0  0
    8.8179   -1.8360    0.0000 H   0  0  0  0  0  0  0  0  0  0  0  0
    8.8179    0.9699    0.0000 H   0  0  0  0  0  0  0  0  0  0  0  0
    7.4379    0.9699    0.0000 H   0  0  0  0  0  0  0  0  0  0  0  0
    5.7369    1.8271    0.0000 H   0  0  0  0  0  0  0  0  0  0  0  0
    3.7320    2.0530    0.0000 H   0  0  0  0  0  0  0  0  0  0  0  0
    3.7320   -1.1870    0.0000 H   0  0  0  0  0  0  0  0  0  0  0  0
    2.3291   -0.3770    0.0000 H   0  0  0  0  0  0  0  0  0  0  0  0
  1 22  1  0  0  0  0
  2 16  2  0  0  0  0
  3 18  1  0  0  0  0
  3 19  1  0  0  0  0
  3 20  1  0  0  0  0
  4 16  1  0  0  0  0
  4 17  1  0  0  0  0
  4 37  1  0  0  0  0
  5 17  1  0  0  0  0
  5 18  2  0  0  0  0
  6  7  1  0  0  0  0
  6  8  1  0  0  0  0
  6  9  1  0  0  0  0
  6 10  1  0  0  0  0
  7 11  2  0  0  0  0
  7 12  1  0  0  0  0
  8 24  1  0  0  0  0
  8 31  1  0  0  0  0
  8 32  1  0  0  0  0
  9 28  1  0  0  0  0
  9 29  1  0  0  0  0
  9 30  1  0  0  0  0
 10 25  1  0  0  0  0
 10 26  1  0  0  0  0
 10 27  1  0  0  0  0
 11 14  1  0  0  0  0
 11 33  1  0  0  0  0
 12 15  2  0  0  0  0
 12 34  1  0  0  0  0
 13 14  2  0  0  0  0
 13 15  1  0  0  0  0
 13 16  1  0  0  0  0
 14 35  1  0  0  0  0
 15 36  1  0  0  0  0
 17 19  2  0  0  0  0
 18 21  1  0  0  0  0
 19 38  1  0  0  0  0
 20 22  2  0  0  0  0
 20 39  1  0  0  0  0
 21 23  2  0  0  0  0
 21 40  1  0  0  0  0
 22 23  1  0  0  0  0
 23 41  1  0  0  0  0
M  END
> <PUBCHEM_COMPOUND_CID>
59175651

> <PUBCHEM_COMPOUND_CANONICALIZED>
1

> <PUBCHEM_CACTVS_COMPLEXITY>
429

> <PUBCHEM_CACTVS_HBOND_ACCEPTOR>
2

> <PUBCHEM_CACTVS_HBOND_DONOR>
1

> <PUBCHEM_CACTVS_ROTATABLE_BOND>
3

> <PUBCHEM_CACTVS_SUBSKEYS>
AAADceB7IAAEAAAAAAAAAAAAAAAAAWAAAAA8QAAAAAAAAFgB8AAAHgIQAAAADgLBmyQ/sJ/MGACoAjN3dACCgC01F6AJ2CE4dtiIaPLBn5HUIQholQLIyacYiMCPwAAAAAAAAACAAAAAAAAAAAAAAAAAAA==

> <PUBCHEM_IUPAC_OPENEYE_NAME>
4-tert-butyl-N-(6-chloroimidazo[1,2-a]pyridin-2-yl)benzamide

> <PUBCHEM_IUPAC_CAS_NAME>
4-tert-butyl-N-(6-chloro-2-imidazo[1,2-a]pyridinyl)benzamide

> <PUBCHEM_IUPAC_NAME>
4-tert-butyl-N-(6-chloroimidazo[1,2-a]pyridin-2-yl)benzamide

> <PUBCHEM_IUPAC_SYSTEMATIC_NAME>
4-tert-butyl-N-(6-chloranylimidazo[1,2-a]pyridin-2-yl)benzamide

> <PUBCHEM_IUPAC_TRADITIONAL_NAME>
4-tert-butyl-N-(6-chloroimidazo[1,2-a]pyridin-2-yl)benzamide

> <PUBCHEM_IUPAC_INCHI>
InChI=1S/C18H18ClN3O/c1-18(2,3)13-6-4-12(5-7-13)17(23)21-15-11-22-10-14(19)8-9-16(22)20-15/h4-11H,1-3H3,(H,21,23)

> <PUBCHEM_IUPAC_INCHIKEY>
GGUDNAJEGVAELQ-UHFFFAOYSA-N

> <PUBCHEM_XLOGP3_AA>
5.2

> <PUBCHEM_EXACT_MASS>
327.114

> <PUBCHEM_MOLECULAR_FORMULA>
C18H18ClN3O

> <PUBCHEM_MOLECULAR_WEIGHT>
327.812

> <PUBCHEM_OPENEYE_CAN_SMILES>
CC(C)(C)C1=CC=C(C=C1)C(=O)NC2=CN3C=C(C=CC3=N2)Cl

> <PUBCHEM_OPENEYE_ISO_SMILES>
CC(C)(C)C1=CC=C(C=C1)C(=O)NC2=CN3C=C(C=CC3=N2)Cl

> <PUBCHEM_CACTVS_TPSA>
46.4

> <PUBCHEM_MONOISOTOPIC_WEIGHT>
327.114

> <PUBCHEM_TOTAL_CHARGE>
0

> <PUBCHEM_HEAVY_ATOM_COUNT>
23

> <PUBCHEM_ATOM_DEF_STEREO_COUNT>
0

> <PUBCHEM_ATOM_UDEF_STEREO_COUNT>
0

> <PUBCHEM_BOND_DEF_STEREO_COUNT>
0

> <PUBCHEM_BOND_UDEF_STEREO_COUNT>
0

> <PUBCHEM_ISOTOPIC_ATOM_COUNT>
0

> <PUBCHEM_COMPONENT_COUNT>
1

> <PUBCHEM_CACTVS_TAUTO_COUNT>
2

> <PUBCHEM_COORDINATE_TYPE>
1
5
255

> <PUBCHEM_BONDANNOTATIONS>
11  14  8
12  15  8
13  14  8
13  15  8
17  19  8
18  21  8
20  22  8
21  23  8
22  23  8
3  18  8
3  19  8
3  20  8
5  17  8
5  18  8
7  11  8
7  12  8

$$$$
59175417
  -OEChem-11021604552D

 41 43  0     0  0  0  0  0  0999 V2000
    2.0000    1.4330    0.0000 Br  0  0  0  0  0  0  0  0  0  0  0  0
    7.1279   -1.2990    0.0000 O   0  0  0  0  0  0  0  0  0  0  0  0
    4.5981    0.9330    0.0000 N   0  0  0  0  0  0  0  0  0  0  0  0
    7.1279    0.4330    0.0000 N   0  0  0  0  0  0  0  0  0  0  0  0
    5.5443   -0.3717    0.0000 N   0  0  0  0  0  0  0  0  0  0  0  0
   11.6279   -0.4330    0.0000 C   0  0  0  0  0  0  0  0  0  0  0  0
   10.6279   -0.4330    0.0000 C   0  0  0  0  0  0  0  0  0  0  0  0
   12.6279   -0.4330    0.0000 C   0  0  0  0  0  0  0  0  0  0  0  0
   11.6279   -1.4330    0.0000 C   0  0  0  0  0  0  0  0  0  0  0  0
   11.6279    0.5670    0.0000 C   0  0  0  0  0  0  0  0  0  0  0  0
   10.1279   -1.2990    0.0000 C   0  0  0  0  0  0  0  0  0  0  0  0
   10.1279    0.4330    0.0000 C   0  0  0  0  0  0  0  0  0  0  0  0
    8.6279   -0.4330    0.0000 C   0  0  0  0  0  0  0  0  0  0  0  0
    9.1279   -1.2990    0.0000 C   0  0  0  0  0  0  0  0  0  0  0  0
    9.1279    0.4330    0.0000 C   0  0  0  0  0  0  0  0  0  0  0  0
    7.6279   -0.4330    0.0000 C   0  0  0  0  0  0  0  0  0  0  0  0
    6.1279    0.4330    0.0000 C   0  0  0  0  0  0  0  0  0  0  0  0
    4.5981   -0.0670    0.0000 C   0  0  0  0  0  0  0  0  0  0  0  0
    5.5443    1.2377    0.0000 C   0  0  0  0  0  0  0  0  0  0  0  0
    3.7320    1.4330    0.0000 C   0  0  0  0  0  0  0  0  0  0  0  0
    3.7320   -0.5670    0.0000 C   0  0  0  0  0  0  0  0  0  0  0  0
    2.8660    0.9330    0.0000 C   0  0  0  0  0  0  0  0  0  0  0  0
    2.8660   -0.0670    0.0000 C   0  0  0  0  0  0  0  0  0  0  0  0
   12.6279   -1.0530    0.0000 H   0  0  0  0  0  0  0  0  0  0  0  0
   12.2479    0.5670    0.0000 H   0  0  0  0  0  0  0  0  0  0  0  0
   11.6279    1.1870    0.0000 H   0  0  0  0  0  0  0  0  0  0  0  0
   11.0079    0.5670    0.0000 H   0  0  0  0  0  0  0  0  0  0  0  0
   11.0079   -1.4330    0.0000 H   0  0  0  0  0  0  0  0  0  0  0  0
   11.6279   -2.0530    0.0000 H   0  0  0  0  0  0  0  0  0  0  0  0
   12.2479   -1.4330    0.0000 H   0  0  0  0  0  0  0  0  0  0  0  0
   13.2479   -0.4330    0.0000 H   0  0  0  0  0  0  0  0  0  0  0  0
   12.6279    0.1870    0.0000 H   0  0  0  0  0  0  0  0  0  0  0  0
   10.4379   -1.8360    0.0000 H   0  0  0  0  0  0  0  0  0  0  0  0
   10.4379    0.9699    0.0000 H   0  0  0  0  0  0  0  0  0  0  0  0
    8.8179   -1.8360    0.0000 H   0  0  0  0  0  0  0  0  0  0  0  0
    8.8179    0.9699    0.0000 H   0  0  0  0  0  0  0  0  0  0  0  0
    7.4379    0.9699    0.0000 H   0  0  0  0  0  0  0  0  0  0  0  0
    5.7369    1.8271    0.0000 H   0  0  0  0  0  0  0  0  0  0  0  0
    3.7320    2.0530    0.0000 H   0  0  0  0  0  0  0  0  0  0  0  0
    3.7320   -1.1870    0.0000 H   0  0  0  0  0  0  0  0  0  0  0  0
    2.3291   -0.3770    0.0000 H   0  0  0  0  0  0  0  0  0  0  0  0
  1 22  1  0  0  0  0
  2 16  2  0  0  0  0
  3 18  1  0  0  0  0
  3 19  1  0  0  0  0
  3 20  1  0  0  0  0
  4 16  1  0  0  0  0
  4 17  1  0  0  0  0
  4 37  1  0  0  0  0
  5 17  1  0  0  0  0
  5 18  2  0  0  0  0
  6  7  1  0  0  0  0
  6  8  1  0  0  0  0
  6  9  1  0  0  0  0
  6 10  1  0  0  0  0
  7 11  2  0  0  0  0
  7 12  1  0  0  0  0
  8 24  1  0  0  0  0
  8 31  1  0  0  0  0
  8 32  1  0  0  0  0
  9 28  1  0  0  0  0
  9 29  1  0  0  0  0
  9 30  1  0  0  0  0
 10 25  1  0  0  0  0
 10 26  1  0  0  0  0
 10 27  1  0  0  0  0
 11 14  1  0  0  0  0
 11 33  1  0  0  0  0
 12 15  2  0  0  0  0
 12 34  1  0  0  0  0
 13 14  2  0  0  0  0
 13 15  1  0  0  0  0
 13 16  1  0  0  0  0
 14 35  1  0  0  0  0
 15 36  1  0  0  0  0
 17 19  2  0  0  0  0
 18 21  1  0  0  0  0
 19 38  1  0  0  0  0
 20 22  2  0  0  0  0
 20 39  1  0  0  0  0
 21 23  2  0  0  0  0
 21 40  1  0  0  0  0
 22 23  1  0  0  0  0
 23 41  1  0  0  0  0
M  END
> <PUBCHEM_COMPOUND_CID>
59175417

> <PUBCHEM_COMPOUND_CANONICALIZED>
1

> <PUBCHEM_CACTVS_COMPLEXITY>
429

> <PUBCHEM_CACTVS_HBOND_ACCEPTOR>
2

> <PUBCHEM_CACTVS_HBOND_DONOR>
1

> <PUBCHEM_CACTVS_ROTATABLE_BOND>
3

> <PUBCHEM_CACTVS_SUBSKEYS>
AAADceB7IAAAEAAAAAAAAAAAAAAAAWAAAAA8QAAAAAAAAFgB8AAAHgBQAAABrgDBmwQ/sJ/MGACoAjN3dACCgC01EqQJ2CE4dPiIaPLAnZGUIQholQLIy7cYiMCPwAAAAAAAAACAAAAAAAAAAAAAAAAAAA==

> <PUBCHEM_IUPAC_OPENEYE_NAME>
N-(6-bromoimidazo[1,2-a]pyridin-2-yl)-4-tert-butyl-benzamide

> <PUBCHEM_IUPAC_CAS_NAME>
N-(6-bromo-2-imidazo[1,2-a]pyridinyl)-4-tert-butylbenzamide

> <PUBCHEM_IUPAC_NAME>
N-(6-bromoimidazo[1,2-a]pyridin-2-yl)-4-tert-butylbenzamide

> <PUBCHEM_IUPAC_SYSTEMATIC_NAME>
N-(6-bromanylimidazo[1,2-a]pyridin-2-yl)-4-tert-butyl-benzamide

> <PUBCHEM_IUPAC_TRADITIONAL_NAME>
N-(6-bromoimidazo[1,2-a]pyridin-2-yl)-4-tert-butyl-benzamide

> <PUBCHEM_IUPAC_INCHI>
InChI=1S/C18H18BrN3O/c1-18(2,3)13-6-4-12(5-7-13)17(23)21-15-11-22-10-14(19)8-9-16(22)20-15/h4-11H,1-3H3,(H,21,23)

> <PUBCHEM_IUPAC_INCHIKEY>
JQUBHAZSXQUISS-UHFFFAOYSA-N

> <PUBCHEM_XLOGP3_AA>
5.3

> <PUBCHEM_EXACT_MASS>
371.063

> <PUBCHEM_MOLECULAR_FORMULA>
C18H18BrN3O

> <PUBCHEM_MOLECULAR_WEIGHT>
372.266

> <PUBCHEM_OPENEYE_CAN_SMILES>
CC(C)(C)C1=CC=C(C=C1)C(=O)NC2=CN3C=C(C=CC3=N2)Br

> <PUBCHEM_OPENEYE_ISO_SMILES>
CC(C)(C)C1=CC=C(C=C1)C(=O)NC2=CN3C=C(C=CC3=N2)Br

> <PUBCHEM_CACTVS_TPSA>
46.4

> <PUBCHEM_MONOISOTOPIC_WEIGHT>
371.063

> <PUBCHEM_TOTAL_CHARGE>
0

> <PUBCHEM_HEAVY_ATOM_COUNT>
23

> <PUBCHEM_ATOM_DEF_STEREO_COUNT>
0

> <PUBCHEM_ATOM_UDEF_STEREO_COUNT>
0

> <PUBCHEM_BOND_DEF_STEREO_COUNT>
0

> <PUBCHEM_BOND_UDEF_STEREO_COUNT>
0

> <PUBCHEM_ISOTOPIC_ATOM_COUNT>
0

> <PUBCHEM_COMPONENT_COUNT>
1

> <PUBCHEM_CACTVS_TAUTO_COUNT>
2

> <PUBCHEM_COORDINATE_TYPE>
1
5
255

> <PUBCHEM_BONDANNOTATIONS>
11  14  8
12  15  8
13  14  8
13  15  8
17  19  8
18  21  8
20  22  8
21  23  8
22  23  8
3  18  8
3  19  8
3  20  8
5  17  8
5  18  8
7  11  8
7  12  8

$$$$
59175598
  -OEChem-11021604552D

 49 52  0     0  0  0  0  0  0999 V2000
    8.7106   -1.9002    0.0000 O   0  0  0  0  0  0  0  0  0  0  0  0
    6.1808    0.3318    0.0000 N   0  0  0  0  0  0  0  0  0  0  0  0
    8.7106   -0.1682    0.0000 N   0  0  0  0  0  0  0  0  0  0  0  0
    3.5827    0.8318    0.0000 N   0  0  0  0  0  0  0  0  0  0  0  0
    7.1270   -0.9729    0.0000 N   0  0  0  0  0  0  0  0  0  0  0  0
   13.2106   -1.0342    0.0000 C   0  0  0  0  0  0  0  0  0  0  0  0
   12.2106   -1.0342    0.0000 C   0  0  0  0  0  0  0  0  0  0  0  0
   14.2106   -1.0342    0.0000 C   0  0  0  0  0  0  0  0  0  0  0  0
   13.2106   -2.0342    0.0000 C   0  0  0  0  0  0  0  0  0  0  0  0
   13.2106   -0.0342    0.0000 C   0  0  0  0  0  0  0  0  0  0  0  0
   11.7106   -0.1682    0.0000 C   0  0  0  0  0  0  0  0  0  0  0  0
   11.7106   -1.9002    0.0000 C   0  0  0  0  0  0  0  0  0  0  0  0
   10.2106   -1.0342    0.0000 C   0  0  0  0  0  0  0  0  0  0  0  0
   10.7106   -0.1682    0.0000 C   0  0  0  0  0  0  0  0  0  0  0  0
   10.7106   -1.9002    0.0000 C   0  0  0  0  0  0  0  0  0  0  0  0
    6.1808   -0.6682    0.0000 C   0  0  0  0  0  0  0  0  0  0  0  0
    4.4487    0.3318    0.0000 C   0  0  0  0  0  0  0  0  0  0  0  0
    7.7106   -0.1682    0.0000 C   0  0  0  0  0  0  0  0  0  0  0  0
    9.2106   -1.0342    0.0000 C   0  0  0  0  0  0  0  0  0  0  0  0
    5.3147    0.8318    0.0000 C   0  0  0  0  0  0  0  0  0  0  0  0
    7.1270    0.6365    0.0000 C   0  0  0  0  0  0  0  0  0  0  0  0
    5.3147   -1.1682    0.0000 C   0  0  0  0  0  0  0  0  0  0  0  0
    4.4487   -0.6682    0.0000 C   0  0  0  0  0  0  0  0  0  0  0  0
    3.4782    1.8263    0.0000 C   0  0  0  0  0  0  0  0  0  0  0  0
    2.6691    0.4251    0.0000 C   0  0  0  0  0  0  0  0  0  0  0  0
    2.5000    2.0342    0.0000 C   0  0  0  0  0  0  0  0  0  0  0  0
    2.0000    1.1682    0.0000 C   0  0  0  0  0  0  0  0  0  0  0  0
   13.8306   -0.0342    0.0000 H   0  0  0  0  0  0  0  0  0  0  0  0
   14.2106   -1.6542    0.0000 H   0  0  0  0  0  0  0  0  0  0  0  0
   14.8306   -1.0342    0.0000 H   0  0  0  0  0  0  0  0  0  0  0  0
   14.2106   -0.4142    0.0000 H   0  0  0  0  0  0  0  0  0  0  0  0
   13.2106    0.5858    0.0000 H   0  0  0  0  0  0  0  0  0  0  0  0
   12.5906   -0.0342    0.0000 H   0  0  0  0  0  0  0  0  0  0  0  0
   12.5906   -2.0342    0.0000 H   0  0  0  0  0  0  0  0  0  0  0  0
   13.2106   -2.6542    0.0000 H   0  0  0  0  0  0  0  0  0  0  0  0
   13.8306   -2.0342    0.0000 H   0  0  0  0  0  0  0  0  0  0  0  0
   12.0206    0.3687    0.0000 H   0  0  0  0  0  0  0  0  0  0  0  0
   12.0206   -2.4372    0.0000 H   0  0  0  0  0  0  0  0  0  0  0  0
   10.4006    0.3687    0.0000 H   0  0  0  0  0  0  0  0  0  0  0  0
   10.4006   -2.4372    0.0000 H   0  0  0  0  0  0  0  0  0  0  0  0
    5.3147    1.4518    0.0000 H   0  0  0  0  0  0  0  0  0  0  0  0
    7.3196    1.2259    0.0000 H   0  0  0  0  0  0  0  0  0  0  0  0
    9.0206    0.3687    0.0000 H   0  0  0  0  0  0  0  0  0  0  0  0
    5.3147   -1.7882    0.0000 H   0  0  0  0  0  0  0  0  0  0  0  0
    3.9118   -0.9782    0.0000 H   0  0  0  0  0  0  0  0  0  0  0  0
    3.9389    2.2412    0.0000 H   0  0  0  0  0  0  0  0  0  0  0  0
    2.5402   -0.1814    0.0000 H   0  0  0  0  0  0  0  0  0  0  0  0
    2.2478    2.6006    0.0000 H   0  0  0  0  0  0  0  0  0  0  0  0
    1.3834    1.1034    0.0000 H   0  0  0  0  0  0  0  0  0  0  0  0
  1 19  2  0  0  0  0
  2 16  1  0  0  0  0
  2 20  1  0  0  0  0
  2 21  1  0  0  0  0
  3 18  1  0  0  0  0
  3 19  1  0  0  0  0
  3 43  1  0  0  0  0
  4 17  1  0  0  0  0
  4 24  1  0  0  0  0
  4 25  1  0  0  0  0
  5 16  2  0  0  0  0
  5 18  1  0  0  0  0
  6  7  1  0  0  0  0
  6  8  1  0  0  0  0
  6  9  1  0  0  0  0
  6 10  1  0  0  0  0
  7 11  2  0  0  0  0
  7 12  1  0  0  0  0
  8 29  1  0  0  0  0
  8 30  1  0  0  0  0
  8 31  1  0  0  0  0
  9 34  1  0  0  0  0
  9 35  1  0  0  0  0
  9 36  1  0  0  0  0
 10 28  1  0  0  0  0
 10 32  1  0  0  0  0
 10 33  1  0  0  0  0
 11 14  1  0  0  0  0
 11 37  1  0  0  0  0
 12 15  2  0  0  0  0
 12 38  1  0  0  0  0
 13 14  2  0  0  0  0
 13 15  1  0  0  0  0
 13 19  1  0  0  0  0
 14 39  1  0  0  0  0
 15 40  1  0  0  0  0
 16 22  1  0  0  0  0
 17 20  2  0  0  0  0
 17 23  1  0  0  0  0
 18 21  2  0  0  0  0
 20 41  1  0  0  0  0
 21 42  1  0  0  0  0
 22 23  2  0  0  0  0
 22 44  1  0  0  0  0
 23 45  1  0  0  0  0
 24 26  2  0  0  0  0
 24 46  1  0  0  0  0
 25 27  2  0  0  0  0
 25 47  1  0  0  0  0
 26 27  1  0  0  0  0
 26 48  1  0  0  0  0
 27 49  1  0  0  0  0
M  END
> <PUBCHEM_COMPOUND_CID>
59175598

> <PUBCHEM_COMPOUND_CANONICALIZED>
1

> <PUBCHEM_CACTVS_COMPLEXITY>
517

> <PUBCHEM_CACTVS_HBOND_ACCEPTOR>
2

> <PUBCHEM_CACTVS_HBOND_DONOR>
1

> <PUBCHEM_CACTVS_ROTATABLE_BOND>
4

> <PUBCHEM_CACTVS_SUBSKEYS>
AAADceB7oAAAAAAAAAAAAAAAAAAAAWLAAAA8QAAAAAAAAFgB/AAAHgAQAAAADgjBmwQ/8J/MGACoAjd3dACCgC01EqAJ2CE4dNiIaPLAnZGUIQholQLIyacYiMCPwAAAAAAAAACAAAAAAAAAAAAAAAAAAA==

> <PUBCHEM_IUPAC_OPENEYE_NAME>
4-tert-butyl-N-(6-pyrrol-1-ylimidazo[1,2-a]pyridin-2-yl)benzamide

> <PUBCHEM_IUPAC_CAS_NAME>
4-tert-butyl-N-[6-(1-pyrrolyl)-2-imidazo[1,2-a]pyridinyl]benzamide

> <PUBCHEM_IUPAC_NAME>
4-tert-butyl-N-(6-pyrrol-1-ylimidazo[1,2-a]pyridin-2-yl)benzamide

> <PUBCHEM_IUPAC_SYSTEMATIC_NAME>
4-tert-butyl-N-(6-pyrrol-1-ylimidazo[1,2-a]pyridin-2-yl)benzamide

> <PUBCHEM_IUPAC_TRADITIONAL_NAME>
4-tert-butyl-N-(6-pyrrol-1-ylimidazo[1,2-a]pyridin-2-yl)benzamide

> <PUBCHEM_IUPAC_INCHI>
InChI=1S/C22H22N4O/c1-22(2,3)17-8-6-16(7-9-17)21(27)24-19-15-26-14-18(10-11-20(26)23-19)25-12-4-5-13-25/h4-15H,1-3H3,(H,24,27)

> <PUBCHEM_IUPAC_INCHIKEY>
CCKSRTCMHOQKBE-UHFFFAOYSA-N

> <PUBCHEM_XLOGP3_AA>
5

> <PUBCHEM_EXACT_MASS>
358.179

> <PUBCHEM_MOLECULAR_FORMULA>
C22H22N4O

> <PUBCHEM_MOLECULAR_WEIGHT>
358.445

> <PUBCHEM_OPENEYE_CAN_SMILES>
CC(C)(C)C1=CC=C(C=C1)C(=O)NC2=CN3C=C(C=CC3=N2)N4C=CC=C4

> <PUBCHEM_OPENEYE_ISO_SMILES>
CC(C)(C)C1=CC=C(C=C1)C(=O)NC2=CN3C=C(C=CC3=N2)N4C=CC=C4

> <PUBCHEM_CACTVS_TPSA>
51.3

> <PUBCHEM_MONOISOTOPIC_WEIGHT>
358.179

> <PUBCHEM_TOTAL_CHARGE>
0

> <PUBCHEM_HEAVY_ATOM_COUNT>
27

> <PUBCHEM_ATOM_DEF_STEREO_COUNT>
0

> <PUBCHEM_ATOM_UDEF_STEREO_COUNT>
0

> <PUBCHEM_BOND_DEF_STEREO_COUNT>
0

> <PUBCHEM_BOND_UDEF_STEREO_COUNT>
0

> <PUBCHEM_ISOTOPIC_ATOM_COUNT>
0

> <PUBCHEM_COMPONENT_COUNT>
1

> <PUBCHEM_CACTVS_TAUTO_COUNT>
2

> <PUBCHEM_COORDINATE_TYPE>
1
5
255

> <PUBCHEM_BONDANNOTATIONS>
11  14  8
12  15  8
13  14  8
13  15  8
16  22  8
17  20  8
17  23  8
18  21  8
2  16  8
2  20  8
2  21  8
22  23  8
24  26  8
25  27  8
26  27  8
4  24  8
4  25  8
5  16  8
5  18  8
7  11  8
7  12  8

$$$$
59175469
  -OEChem-11021604552D

 46 49  0     0  0  0  0  0  0999 V2000
   14.2106   -1.0342    0.0000 O   0  0  0  0  0  0  0  0  0  0  0  0
    8.7106   -1.9002    0.0000 O   0  0  0  0  0  0  0  0  0  0  0  0
    6.1808    0.3318    0.0000 N   0  0  0  0  0  0  0  0  0  0  0  0
    8.7106   -0.1682    0.0000 N   0  0  0  0  0  0  0  0  0  0  0  0
    3.5827    0.8318    0.0000 N   0  0  0  0  0  0  0  0  0  0  0  0
    7.1270   -0.9729    0.0000 N   0  0  0  0  0  0  0  0  0  0  0  0
    2.5000    2.0342    0.0000 N   0  0  0  0  0  0  0  0  0  0  0  0
   13.2106   -1.0342    0.0000 C   0  0  0  0  0  0  0  0  0  0  0  0
   12.2106   -1.0342    0.0000 C   0  0  0  0  0  0  0  0  0  0  0  0
   13.2106   -2.0342    0.0000 C   0  0  0  0  0  0  0  0  0  0  0  0
   13.2106   -0.0342    0.0000 C   0  0  0  0  0  0  0  0  0  0  0  0
   11.7106   -0.1682    0.0000 C   0  0  0  0  0  0  0  0  0  0  0  0
   11.7106   -1.9002    0.0000 C   0  0  0  0  0  0  0  0  0  0  0  0
    6.1808   -0.6682    0.0000 C   0  0  0  0  0  0  0  0  0  0  0  0
   10.2106   -1.0342    0.0000 C   0  0  0  0  0  0  0  0  0  0  0  0
    4.4487    0.3318    0.0000 C   0  0  0  0  0  0  0  0  0  0  0  0
    7.7106   -0.1682    0.0000 C   0  0  0  0  0  0  0  0  0  0  0  0
    5.3147    0.8318    0.0000 C   0  0  0  0  0  0  0  0  0  0  0  0
    7.1270    0.6365    0.0000 C   0  0  0  0  0  0  0  0  0  0  0  0
   10.7106   -0.1682    0.0000 C   0  0  0  0  0  0  0  0  0  0  0  0
   10.7106   -1.9002    0.0000 C   0  0  0  0  0  0  0  0  0  0  0  0
    5.3147   -1.1682    0.0000 C   0  0  0  0  0  0  0  0  0  0  0  0
    4.4487   -0.6682    0.0000 C   0  0  0  0  0  0  0  0  0  0  0  0
    9.2106   -1.0342    0.0000 C   0  0  0  0  0  0  0  0  0  0  0  0
    2.6691    0.4251    0.0000 C   0  0  0  0  0  0  0  0  0  0  0  0
    3.4782    1.8263    0.0000 C   0  0  0  0  0  0  0  0  0  0  0  0
    2.0000    1.1682    0.0000 C   0  0  0  0  0  0  0  0  0  0  0  0
   12.5906   -2.0342    0.0000 H   0  0  0  0  0  0  0  0  0  0  0  0
   13.8306   -0.0342    0.0000 H   0  0  0  0  0  0  0  0  0  0  0  0
   13.2106    0.5858    0.0000 H   0  0  0  0  0  0  0  0  0  0  0  0
   12.5906   -0.0342    0.0000 H   0  0  0  0  0  0  0  0  0  0  0  0
   13.2106   -2.6542    0.0000 H   0  0  0  0  0  0  0  0  0  0  0  0
   13.8306   -2.0342    0.0000 H   0  0  0  0  0  0  0  0  0  0  0  0
   12.0206    0.3687    0.0000 H   0  0  0  0  0  0  0  0  0  0  0  0
   12.0206   -2.4372    0.0000 H   0  0  0  0  0  0  0  0  0  0  0  0
    5.3147    1.4518    0.0000 H   0  0  0  0  0  0  0  0  0  0  0  0
    7.3196    1.2259    0.0000 H   0  0  0  0  0  0  0  0  0  0  0  0
   10.4006    0.3687    0.0000 H   0  0  0  0  0  0  0  0  0  0  0  0
   10.4006   -2.4372    0.0000 H   0  0  0  0  0  0  0  0  0  0  0  0
    5.3147   -1.7882    0.0000 H   0  0  0  0  0  0  0  0  0  0  0  0
    3.9118   -0.9782    0.0000 H   0  0  0  0  0  0  0  0  0  0  0  0
    9.0206    0.3687    0.0000 H   0  0  0  0  0  0  0  0  0  0  0  0
   14.5206   -1.5712    0.0000 H   0  0  0  0  0  0  0  0  0  0  0  0
    2.5402   -0.1814    0.0000 H   0  0  0  0  0  0  0  0  0  0  0  0
    3.9389    2.2412    0.0000 H   0  0  0  0  0  0  0  0  0  0  0  0
    1.3834    1.1034    0.0000 H   0  0  0  0  0  0  0  0  0  0  0  0
  1  8  1  0  0  0  0
  1 43  1  0  0  0  0
  2 24  2  0  0  0  0
  3 14  1  0  0  0  0
  3 18  1  0  0  0  0
  3 19  1  0  0  0  0
  4 17  1  0  0  0  0
  4 24  1  0  0  0  0
  4 42  1  0  0  0  0
  5 16  1  0  0  0  0
  5 25  1  0  0  0  0
  5 26  1  0  0  0  0
  6 14  2  0  0  0  0
  6 17  1  0  0  0  0
  7 26  2  0  0  0  0
  7 27  1  0  0  0  0
  8  9  1  0  0  0  0
  8 10  1  0  0  0  0
  8 11  1  0  0  0  0
  9 12  2  0  0  0  0
  9 13  1  0  0  0  0
 10 28  1  0  0  0  0
 10 32  1  0  0  0  0
 10 33  1  0  0  0  0
 11 29  1  0  0  0  0
 11 30  1  0  0  0  0
 11 31  1  0  0  0  0
 12 20  1  0  0  0  0
 12 34  1  0  0  0  0
 13 21  2  0  0  0  0
 13 35  1  0  0  0  0
 14 22  1  0  0  0  0
 15 20  2  0  0  0  0
 15 21  1  0  0  0  0
 15 24  1  0  0  0  0
 16 18  2  0  0  0  0
 16 23  1  0  0  0  0
 17 19  2  0  0  0  0
 18 36  1  0  0  0  0
 19 37  1  0  0  0  0
 20 38  1  0  0  0  0
 21 39  1  0  0  0  0
 22 23  2  0  0  0  0
 22 40  1  0  0  0  0
 23 41  1  0  0  0  0
 25 27  2  0  0  0  0
 25 44  1  0  0  0  0
 26 45  1  0  0  0  0
 27 46  1  0  0  0  0
M  END
> <PUBCHEM_COMPOUND_CID>
59175469

> <PUBCHEM_COMPOUND_CANONICALIZED>
1

> <PUBCHEM_CACTVS_COMPLEXITY>
535

> <PUBCHEM_CACTVS_HBOND_ACCEPTOR>
4

> <PUBCHEM_CACTVS_HBOND_DONOR>
2

> <PUBCHEM_CACTVS_ROTATABLE_BOND>
4

> <PUBCHEM_CACTVS_SUBSKEYS>
AAADceB7sAAAAAAAAAAAAAAAAAAAAWLAAAA8QAAAAAAAAFgB/AAAHgAQCAAADEzBmwQ/8J/MGgCoAjd3dACCgC01EqAJ2CE4fNiIbvLAnZGUcQhs1QPI2aeYyPCOwAAAAAAAAACAAAAAAAAAAAAAAAAAAA==

> <PUBCHEM_IUPAC_OPENEYE_NAME>
4-(1-hydroxy-1-methyl-ethyl)-N-(6-imidazol-1-ylimidazo[1,2-a]pyridin-2-yl)benzamide

> <PUBCHEM_IUPAC_CAS_NAME>
4-(2-hydroxypropan-2-yl)-N-[6-(1-imidazolyl)-2-imidazo[1,2-a]pyridinyl]benzamide

> <PUBCHEM_IUPAC_NAME>
4-(2-hydroxypropan-2-yl)-N-(6-imidazol-1-ylimidazo[1,2-a]pyridin-2-yl)benzamide

> <PUBCHEM_IUPAC_SYSTEMATIC_NAME>
N-(6-imidazol-1-ylimidazo[1,2-a]pyridin-2-yl)-4-(2-oxidanylpropan-2-yl)benzamide

> <PUBCHEM_IUPAC_TRADITIONAL_NAME>
4-(1-hydroxy-1-methyl-ethyl)-N-(6-imidazol-1-ylimidazo[1,2-a]pyridin-2-yl)benzamide

> <PUBCHEM_IUPAC_INCHI>
InChI=1S/C20H19N5O2/c1-20(2,27)15-5-3-14(4-6-15)19(26)23-17-12-25-11-16(7-8-18(25)22-17)24-10-9-21-13-24/h3-13,27H,1-2H3,(H,23,26)

> <PUBCHEM_IUPAC_INCHIKEY>
XTHZSIUQLMKARU-UHFFFAOYSA-N

> <PUBCHEM_XLOGP3_AA>
2.4

> <PUBCHEM_EXACT_MASS>
361.154

> <PUBCHEM_MOLECULAR_FORMULA>
C20H19N5O2

> <PUBCHEM_MOLECULAR_WEIGHT>
361.405

> <PUBCHEM_OPENEYE_CAN_SMILES>
CC(C)(C1=CC=C(C=C1)C(=O)NC2=CN3C=C(C=CC3=N2)N4C=CN=C4)O

> <PUBCHEM_OPENEYE_ISO_SMILES>
CC(C)(C1=CC=C(C=C1)C(=O)NC2=CN3C=C(C=CC3=N2)N4C=CN=C4)O

> <PUBCHEM_CACTVS_TPSA>
84.4

> <PUBCHEM_MONOISOTOPIC_WEIGHT>
361.154

> <PUBCHEM_TOTAL_CHARGE>
0

> <PUBCHEM_HEAVY_ATOM_COUNT>
27

> <PUBCHEM_ATOM_DEF_STEREO_COUNT>
0

> <PUBCHEM_ATOM_UDEF_STEREO_COUNT>
0

> <PUBCHEM_BOND_DEF_STEREO_COUNT>
0

> <PUBCHEM_BOND_UDEF_STEREO_COUNT>
0

> <PUBCHEM_ISOTOPIC_ATOM_COUNT>
0

> <PUBCHEM_COMPONENT_COUNT>
1

> <PUBCHEM_CACTVS_TAUTO_COUNT>
2

> <PUBCHEM_COORDINATE_TYPE>
1
5
255

> <PUBCHEM_BONDANNOTATIONS>
12  20  8
13  21  8
14  22  8
15  20  8
15  21  8
16  18  8
16  23  8
17  19  8
22  23  8
25  27  8
3  14  8
3  18  8
3  19  8
5  25  8
5  26  8
6  14  8
6  17  8
7  26  8
7  27  8
9  12  8
9  13  8

$$$$
59175418
  -OEChem-11021604552D

 49 51  0     0  0  0  0  0  0999 V2000
    8.8600   -1.2990    0.0000 O   0  0  0  0  0  0  0  0  0  0  0  0
    6.3301    0.9330    0.0000 N   0  0  0  0  0  0  0  0  0  0  0  0
    8.8600    0.4330    0.0000 N   0  0  0  0  0  0  0  0  0  0  0  0
    7.2764   -0.3717    0.0000 N   0  0  0  0  0  0  0  0  0  0  0  0
    2.8660    0.9330    0.0000 N   0  0  0  0  0  0  0  0  0  0  0  0
   13.3600   -0.4330    0.0000 C   0  0  0  0  0  0  0  0  0  0  0  0
   12.3600   -0.4330    0.0000 C   0  0  0  0  0  0  0  0  0  0  0  0
   14.3600   -0.4330    0.0000 C   0  0  0  0  0  0  0  0  0  0  0  0
   13.3600   -1.4330    0.0000 C   0  0  0  0  0  0  0  0  0  0  0  0
   13.3600    0.5670    0.0000 C   0  0  0  0  0  0  0  0  0  0  0  0
   11.8600   -1.2990    0.0000 C   0  0  0  0  0  0  0  0  0  0  0  0
   11.8600    0.4330    0.0000 C   0  0  0  0  0  0  0  0  0  0  0  0
   10.3600   -0.4330    0.0000 C   0  0  0  0  0  0  0  0  0  0  0  0
   10.8600   -1.2990    0.0000 C   0  0  0  0  0  0  0  0  0  0  0  0
   10.8600    0.4330    0.0000 C   0  0  0  0  0  0  0  0  0  0  0  0
    6.3301   -0.0670    0.0000 C   0  0  0  0  0  0  0  0  0  0  0  0
    4.5981    0.9330    0.0000 C   0  0  0  0  0  0  0  0  0  0  0  0
    7.8600    0.4330    0.0000 C   0  0  0  0  0  0  0  0  0  0  0  0
    9.3600   -0.4330    0.0000 C   0  0  0  0  0  0  0  0  0  0  0  0
    5.4641    1.4330    0.0000 C   0  0  0  0  0  0  0  0  0  0  0  0
    7.2764    1.2377    0.0000 C   0  0  0  0  0  0  0  0  0  0  0  0
    3.7320    1.4330    0.0000 C   0  0  0  0  0  0  0  0  0  0  0  0
    5.4641   -0.5670    0.0000 C   0  0  0  0  0  0  0  0  0  0  0  0
    4.5981   -0.0670    0.0000 C   0  0  0  0  0  0  0  0  0  0  0  0
    2.0000    1.4330    0.0000 C   0  0  0  0  0  0  0  0  0  0  0  0
   14.3600   -1.0530    0.0000 H   0  0  0  0  0  0  0  0  0  0  0  0
   14.9800   -0.4330    0.0000 H   0  0  0  0  0  0  0  0  0  0  0  0
   13.9800    0.5670    0.0000 H   0  0  0  0  0  0  0  0  0  0  0  0
   13.3600    1.1870    0.0000 H   0  0  0  0  0  0  0  0  0  0  0  0
   12.7400    0.5670    0.0000 H   0  0  0  0  0  0  0  0  0  0  0  0
   12.7400   -1.4330    0.0000 H   0  0  0  0  0  0  0  0  0  0  0  0
   13.3600   -2.0530    0.0000 H   0  0  0  0  0  0  0  0  0  0  0  0
   13.9800   -1.4330    0.0000 H   0  0  0  0  0  0  0  0  0  0  0  0
   14.3600    0.1870    0.0000 H   0  0  0  0  0  0  0  0  0  0  0  0
   12.1700   -1.8360    0.0000 H   0  0  0  0  0  0  0  0  0  0  0  0
   12.1700    0.9699    0.0000 H   0  0  0  0  0  0  0  0  0  0  0  0
   10.5500   -1.8360    0.0000 H   0  0  0  0  0  0  0  0  0  0  0  0
   10.5500    0.9699    0.0000 H   0  0  0  0  0  0  0  0  0  0  0  0
    5.4641    2.0530    0.0000 H   0  0  0  0  0  0  0  0  0  0  0  0
    7.4690    1.8271    0.0000 H   0  0  0  0  0  0  0  0  0  0  0  0
    9.1700    0.9699    0.0000 H   0  0  0  0  0  0  0  0  0  0  0  0
    4.1306    1.9080    0.0000 H   0  0  0  0  0  0  0  0  0  0  0  0
    3.3335    1.9080    0.0000 H   0  0  0  0  0  0  0  0  0  0  0  0
    5.4641   -1.1870    0.0000 H   0  0  0  0  0  0  0  0  0  0  0  0
    4.0611   -0.3770    0.0000 H   0  0  0  0  0  0  0  0  0  0  0  0
    2.8660    0.3130    0.0000 H   0  0  0  0  0  0  0  0  0  0  0  0
    2.3100    1.9700    0.0000 H   0  0  0  0  0  0  0  0  0  0  0  0
    1.4631    1.7430    0.0000 H   0  0  0  0  0  0  0  0  0  0  0  0
    1.6900    0.8961    0.0000 H   0  0  0  0  0  0  0  0  0  0  0  0
  1 19  2  0  0  0  0
  2 16  1  0  0  0  0
  2 20  1  0  0  0  0
  2 21  1  0  0  0  0
  3 18  1  0  0  0  0
  3 19  1  0  0  0  0
  3 41  1  0  0  0  0
  4 16  2  0  0  0  0
  4 18  1  0  0  0  0
  5 22  1  0  0  0  0
  5 25  1  0  0  0  0
  5 46  1  0  0  0  0
  6  7  1  0  0  0  0
  6  8  1  0  0  0  0
  6  9  1  0  0  0  0
  6 10  1  0  0  0  0
  7 11  2  0  0  0  0
  7 12  1  0  0  0  0
  8 26  1  0  0  0  0
  8 27  1  0  0  0  0
  8 34  1  0  0  0  0
  9 31  1  0  0  0  0
  9 32  1  0  0  0  0
  9 33  1  0  0  0  0
 10 28  1  0  0  0  0
 10 29  1  0  0  0  0
 10 30  1  0  0  0  0
 11 14  1  0  0  0  0
 11 35  1  0  0  0  0
 12 15  2  0  0  0  0
 12 36  1  0  0  0  0
 13 14  2  0  0  0  0
 13 15  1  0  0  0  0
 13 19  1  0  0  0  0
 14 37  1  0  0  0  0
 15 38  1  0  0  0  0
 16 23  1  0  0  0  0
 17 20  2  0  0  0  0
 17 22  1  0  0  0  0
 17 24  1  0  0  0  0
 18 21  2  0  0  0  0
 20 39  1  0  0  0  0
 21 40  1  0  0  0  0
 22 42  1  0  0  0  0
 22 43  1  0  0  0  0
 23 24  2  0  0  0  0
 23 44  1  0  0  0  0
 24 45  1  0  0  0  0
 25 47  1  0  0  0  0
 25 48  1  0  0  0  0
 25 49  1  0  0  0  0
M  END
> <PUBCHEM_COMPOUND_CID>
59175418

> <PUBCHEM_COMPOUND_CANONICALIZED>
1

> <PUBCHEM_CACTVS_COMPLEXITY>
453

> <PUBCHEM_CACTVS_HBOND_ACCEPTOR>
3

> <PUBCHEM_CACTVS_HBOND_DONOR>
2

> <PUBCHEM_CACTVS_ROTATABLE_BOND>
5

> <PUBCHEM_CACTVS_SUBSKEYS>
AAADceB7oAAAAAAAAAAAAAAAAAAAAWAAAAA8QAAAAAAAAFgB8AAAHgAQAAAADgDBmwQ/sJ/MGACoAjN3dACCgC01EqAJ2KE4dNiIaPLA3ZGUIQholQLIyacYiMCPwAAAAAAAAACAAAAAAAAAAAAAAAAAAA==

> <PUBCHEM_IUPAC_OPENEYE_NAME>
4-tert-butyl-N-[6-(methylaminomethyl)imidazo[1,2-a]pyridin-2-yl]benzamide

> <PUBCHEM_IUPAC_CAS_NAME>
4-tert-butyl-N-[6-(methylaminomethyl)-2-imidazo[1,2-a]pyridinyl]benzamide

> <PUBCHEM_IUPAC_NAME>
4-tert-butyl-N-[6-(methylaminomethyl)imidazo[1,2-a]pyridin-2-yl]benzamide

> <PUBCHEM_IUPAC_SYSTEMATIC_NAME>
4-tert-butyl-N-[6-(methylaminomethyl)imidazo[1,2-a]pyridin-2-yl]benzamide

> <PUBCHEM_IUPAC_TRADITIONAL_NAME>
4-tert-butyl-N-[6-(methylaminomethyl)imidazo[1,2-a]pyridin-2-yl]benzamide

> <PUBCHEM_IUPAC_INCHI>
InChI=1S/C20H24N4O/c1-20(2,3)16-8-6-15(7-9-16)19(25)23-17-13-24-12-14(11-21-4)5-10-18(24)22-17/h5-10,12-13,21H,11H2,1-4H3,(H,23,25)

> <PUBCHEM_IUPAC_INCHIKEY>
CFOTXBVSBAUSMW-UHFFFAOYSA-N

> <PUBCHEM_XLOGP3_AA>
4

> <PUBCHEM_EXACT_MASS>
336.195

> <PUBCHEM_MOLECULAR_FORMULA>
C20H24N4O

> <PUBCHEM_MOLECULAR_WEIGHT>
336.439

> <PUBCHEM_OPENEYE_CAN_SMILES>
CC(C)(C)C1=CC=C(C=C1)C(=O)NC2=CN3C=C(C=CC3=N2)CNC

> <PUBCHEM_OPENEYE_ISO_SMILES>
CC(C)(C)C1=CC=C(C=C1)C(=O)NC2=CN3C=C(C=CC3=N2)CNC

> <PUBCHEM_CACTVS_TPSA>
58.4

> <PUBCHEM_MONOISOTOPIC_WEIGHT>
336.195

> <PUBCHEM_TOTAL_CHARGE>
0

> <PUBCHEM_HEAVY_ATOM_COUNT>
25

> <PUBCHEM_ATOM_DEF_STEREO_COUNT>
0

> <PUBCHEM_ATOM_UDEF_STEREO_COUNT>
0

> <PUBCHEM_BOND_DEF_STEREO_COUNT>
0

> <PUBCHEM_BOND_UDEF_STEREO_COUNT>
0

> <PUBCHEM_ISOTOPIC_ATOM_COUNT>
0

> <PUBCHEM_COMPONENT_COUNT>
1

> <PUBCHEM_CACTVS_TAUTO_COUNT>
2

> <PUBCHEM_COORDINATE_TYPE>
1
5
255

> <PUBCHEM_BONDANNOTATIONS>
11  14  8
12  15  8
13  14  8
13  15  8
16  23  8
17  20  8
17  24  8
18  21  8
2  16  8
2  20  8
2  21  8
23  24  8
4  16  8
4  18  8
7  11  8
7  12  8

$$$$
59175229
  -OEChem-11021604552D

 44 46  0     0  0  0  0  0  0999 V2000
    7.1279   -1.2990    0.0000 O   0  0  0  0  0  0  0  0  0  0  0  0
    4.5981    0.9330    0.0000 N   0  0  0  0  0  0  0  0  0  0  0  0
    7.1279    0.4330    0.0000 N   0  0  0  0  0  0  0  0  0  0  0  0
    5.5443   -0.3717    0.0000 N   0  0  0  0  0  0  0  0  0  0  0  0
   11.6279   -0.4330    0.0000 C   0  0  0  0  0  0  0  0  0  0  0  0
   10.6279   -0.4330    0.0000 C   0  0  0  0  0  0  0  0  0  0  0  0
   12.6279   -0.4330    0.0000 C   0  0  0  0  0  0  0  0  0  0  0  0
   11.6279   -1.4330    0.0000 C   0  0  0  0  0  0  0  0  0  0  0  0
   11.6279    0.5670    0.0000 C   0  0  0  0  0  0  0  0  0  0  0  0
   10.1279    0.4330    0.0000 C   0  0  0  0  0  0  0  0  0  0  0  0
   10.1279   -1.2990    0.0000 C   0  0  0  0  0  0  0  0  0  0  0  0
    8.6279   -0.4330    0.0000 C   0  0  0  0  0  0  0  0  0  0  0  0
    9.1279    0.4330    0.0000 C   0  0  0  0  0  0  0  0  0  0  0  0
    9.1279   -1.2990    0.0000 C   0  0  0  0  0  0  0  0  0  0  0  0
    7.6279   -0.4330    0.0000 C   0  0  0  0  0  0  0  0  0  0  0  0
    4.5981   -0.0670    0.0000 C   0  0  0  0  0  0  0  0  0  0  0  0
    6.1279    0.4330    0.0000 C   0  0  0  0  0  0  0  0  0  0  0  0
    5.5443    1.2377    0.0000 C   0  0  0  0  0  0  0  0  0  0  0  0
    3.7320    1.4330    0.0000 C   0  0  0  0  0  0  0  0  0  0  0  0
    2.8660    0.9330    0.0000 C   0  0  0  0  0  0  0  0  0  0  0  0
    3.7320   -0.5670    0.0000 C   0  0  0  0  0  0  0  0  0  0  0  0
    2.8660   -0.0670    0.0000 C   0  0  0  0  0  0  0  0  0  0  0  0
    2.0000    1.4330    0.0000 C   0  0  0  0  0  0  0  0  0  0  0  0
   12.2479    0.5670    0.0000 H   0  0  0  0  0  0  0  0  0  0  0  0
   12.6279   -1.0530    0.0000 H   0  0  0  0  0  0  0  0  0  0  0  0
   13.2479   -0.4330    0.0000 H   0  0  0  0  0  0  0  0  0  0  0  0
   12.6279    0.1870    0.0000 H   0  0  0  0  0  0  0  0  0  0  0  0
   11.0079   -1.4330    0.0000 H   0  0  0  0  0  0  0  0  0  0  0  0
   11.6279   -2.0530    0.0000 H   0  0  0  0  0  0  0  0  0  0  0  0
   12.2479   -1.4330    0.0000 H   0  0  0  0  0  0  0  0  0  0  0  0
   11.6279    1.1870    0.0000 H   0  0  0  0  0  0  0  0  0  0  0  0
   11.0079    0.5670    0.0000 H   0  0  0  0  0  0  0  0  0  0  0  0
   10.4379    0.9699    0.0000 H   0  0  0  0  0  0  0  0  0  0  0  0
   10.4379   -1.8360    0.0000 H   0  0  0  0  0  0  0  0  0  0  0  0
    8.8179    0.9699    0.0000 H   0  0  0  0  0  0  0  0  0  0  0  0
    8.8179   -1.8360    0.0000 H   0  0  0  0  0  0  0  0  0  0  0  0
    5.7369    1.8271    0.0000 H   0  0  0  0  0  0  0  0  0  0  0  0
    7.4379    0.9699    0.0000 H   0  0  0  0  0  0  0  0  0  0  0  0
    3.7320    2.0530    0.0000 H   0  0  0  0  0  0  0  0  0  0  0  0
    3.7320   -1.1870    0.0000 H   0  0  0  0  0  0  0  0  0  0  0  0
    2.3291   -0.3770    0.0000 H   0  0  0  0  0  0  0  0  0  0  0  0
    2.3100    1.9700    0.0000 H   0  0  0  0  0  0  0  0  0  0  0  0
    1.4631    1.7430    0.0000 H   0  0  0  0  0  0  0  0  0  0  0  0
    1.6900    0.8961    0.0000 H   0  0  0  0  0  0  0  0  0  0  0  0
  1 15  2  0  0  0  0
  2 16  1  0  0  0  0
  2 18  1  0  0  0  0
  2 19  1  0  0  0  0
  3 15  1  0  0  0  0
  3 17  1  0  0  0  0
  3 38  1  0  0  0  0
  4 16  2  0  0  0  0
  4 17  1  0  0  0  0
  5  6  1  0  0  0  0
  5  7  1  0  0  0  0
  5  8  1  0  0  0  0
  5  9  1  0  0  0  0
  6 10  2  0  0  0  0
  6 11  1  0  0  0  0
  7 25  1  0  0  0  0
  7 26  1  0  0  0  0
  7 27  1  0  0  0  0
  8 28  1  0  0  0  0
  8 29  1  0  0  0  0
  8 30  1  0  0  0  0
  9 24  1  0  0  0  0
  9 31  1  0  0  0  0
  9 32  1  0  0  0  0
 10 13  1  0  0  0  0
 10 33  1  0  0  0  0
 11 14  2  0  0  0  0
 11 34  1  0  0  0  0
 12 13  2  0  0  0  0
 12 14  1  0  0  0  0
 12 15  1  0  0  0  0
 13 35  1  0  0  0  0
 14 36  1  0  0  0  0
 16 21  1  0  0  0  0
 17 18  2  0  0  0  0
 18 37  1  0  0  0  0
 19 20  2  0  0  0  0
 19 39  1  0  0  0  0
 20 22  1  0  0  0  0
 20 23  1  0  0  0  0
 21 22  2  0  0  0  0
 21 40  1  0  0  0  0
 22 41  1  0  0  0  0
 23 42  1  0  0  0  0
 23 43  1  0  0  0  0
 23 44  1  0  0  0  0
M  END
> <PUBCHEM_COMPOUND_CID>
59175229

> <PUBCHEM_COMPOUND_CANONICALIZED>
1

> <PUBCHEM_CACTVS_COMPLEXITY>
423

> <PUBCHEM_CACTVS_HBOND_ACCEPTOR>
2

> <PUBCHEM_CACTVS_HBOND_DONOR>
1

> <PUBCHEM_CACTVS_ROTATABLE_BOND>
3

> <PUBCHEM_CACTVS_SUBSKEYS>
AAADceB7IAAAAAAAAAAAAAAAAAAAAWAAAAA8QAAAAAAAAFgB8AAAHgAQAAAADgDBmwQ/sJ/MGACoAjN3dACCgC01EqAJ2CE4dNiIaPLAnZGUIQholQLIyacYiMCPwAAAAAAAAACAAAAAAAAAAAAAAAAAAA==

> <PUBCHEM_IUPAC_OPENEYE_NAME>
4-tert-butyl-N-(6-methylimidazo[1,2-a]pyridin-2-yl)benzamide

> <PUBCHEM_IUPAC_CAS_NAME>
4-tert-butyl-N-(6-methyl-2-imidazo[1,2-a]pyridinyl)benzamide

> <PUBCHEM_IUPAC_NAME>
4-tert-butyl-N-(6-methylimidazo[1,2-a]pyridin-2-yl)benzamide

> <PUBCHEM_IUPAC_SYSTEMATIC_NAME>
4-tert-butyl-N-(6-methylimidazo[1,2-a]pyridin-2-yl)benzamide

> <PUBCHEM_IUPAC_TRADITIONAL_NAME>
4-tert-butyl-N-(6-methylimidazo[1,2-a]pyridin-2-yl)benzamide

> <PUBCHEM_IUPAC_INCHI>
InChI=1S/C19H21N3O/c1-13-5-10-17-20-16(12-22(17)11-13)21-18(23)14-6-8-15(9-7-14)19(2,3)4/h5-12H,1-4H3,(H,21,23)

> <PUBCHEM_IUPAC_INCHIKEY>
XRDHAJPBGPUPQR-UHFFFAOYSA-N

> <PUBCHEM_XLOGP3_AA>
5

> <PUBCHEM_EXACT_MASS>
307.168

> <PUBCHEM_MOLECULAR_FORMULA>
C19H21N3O

> <PUBCHEM_MOLECULAR_WEIGHT>
307.397

> <PUBCHEM_OPENEYE_CAN_SMILES>
CC1=CN2C=C(N=C2C=C1)NC(=O)C3=CC=C(C=C3)C(C)(C)C

> <PUBCHEM_OPENEYE_ISO_SMILES>
CC1=CN2C=C(N=C2C=C1)NC(=O)C3=CC=C(C=C3)C(C)(C)C

> <PUBCHEM_CACTVS_TPSA>
46.4

> <PUBCHEM_MONOISOTOPIC_WEIGHT>
307.168

> <PUBCHEM_TOTAL_CHARGE>
0

> <PUBCHEM_HEAVY_ATOM_COUNT>
23

> <PUBCHEM_ATOM_DEF_STEREO_COUNT>
0

> <PUBCHEM_ATOM_UDEF_STEREO_COUNT>
0

> <PUBCHEM_BOND_DEF_STEREO_COUNT>
0

> <PUBCHEM_BOND_UDEF_STEREO_COUNT>
0

> <PUBCHEM_ISOTOPIC_ATOM_COUNT>
0

> <PUBCHEM_COMPONENT_COUNT>
1

> <PUBCHEM_CACTVS_TAUTO_COUNT>
2

> <PUBCHEM_COORDINATE_TYPE>
1
5
255

> <PUBCHEM_BONDANNOTATIONS>
10  13  8
11  14  8
12  13  8
12  14  8
16  21  8
17  18  8
19  20  8
2  16  8
2  18  8
2  19  8
20  22  8
21  22  8
4  16  8
4  17  8
6  10  8
6  11  8

$$$$
24944925
  -OEChem-11021604552D

 48 51  0     0  0  0  0  0  0999 V2000
    8.7106   -1.9002    0.0000 O   0  0  0  0  0  0  0  0  0  0  0  0
    6.1808    0.3318    0.0000 N   0  0  0  0  0  0  0  0  0  0  0  0
    8.7106   -0.1682    0.0000 N   0  0  0  0  0  0  0  0  0  0  0  0
    7.1270   -0.9729    0.0000 N   0  0  0  0  0  0  0  0  0  0  0  0
    3.5827    0.8318    0.0000 N   0  0  0  0  0  0  0  0  0  0  0  0
    2.0000    1.1682    0.0000 N   0  0  0  0  0  0  0  0  0  0  0  0
   13.2106   -1.0342    0.0000 C   0  0  0  0  0  0  0  0  0  0  0  0
   12.2106   -1.0342    0.0000 C   0  0  0  0  0  0  0  0  0  0  0  0
   14.2106   -1.0342    0.0000 C   0  0  0  0  0  0  0  0  0  0  0  0
   13.2106   -2.0342    0.0000 C   0  0  0  0  0  0  0  0  0  0  0  0
   13.2106   -0.0342    0.0000 C   0  0  0  0  0  0  0  0  0  0  0  0
   11.7106   -0.1682    0.0000 C   0  0  0  0  0  0  0  0  0  0  0  0
   11.7106   -1.9002    0.0000 C   0  0  0  0  0  0  0  0  0  0  0  0
   10.2106   -1.0342    0.0000 C   0  0  0  0  0  0  0  0  0  0  0  0
   10.7106   -0.1682    0.0000 C   0  0  0  0  0  0  0  0  0  0  0  0
   10.7106   -1.9002    0.0000 C   0  0  0  0  0  0  0  0  0  0  0  0
    6.1808   -0.6682    0.0000 C   0  0  0  0  0  0  0  0  0  0  0  0
    9.2106   -1.0342    0.0000 C   0  0  0  0  0  0  0  0  0  0  0  0
    7.7106   -0.1682    0.0000 C   0  0  0  0  0  0  0  0  0  0  0  0
    4.4487    0.3318    0.0000 C   0  0  0  0  0  0  0  0  0  0  0  0
    7.1270    0.6365    0.0000 C   0  0  0  0  0  0  0  0  0  0  0  0
    5.3147    0.8318    0.0000 C   0  0  0  0  0  0  0  0  0  0  0  0
    5.3147   -1.1682    0.0000 C   0  0  0  0  0  0  0  0  0  0  0  0
    4.4487   -0.6682    0.0000 C   0  0  0  0  0  0  0  0  0  0  0  0
    3.4782    1.8263    0.0000 C   0  0  0  0  0  0  0  0  0  0  0  0
    2.6691    0.4251    0.0000 C   0  0  0  0  0  0  0  0  0  0  0  0
    2.5000    2.0342    0.0000 C   0  0  0  0  0  0  0  0  0  0  0  0
   14.2106   -1.6542    0.0000 H   0  0  0  0  0  0  0  0  0  0  0  0
   13.8306   -0.0342    0.0000 H   0  0  0  0  0  0  0  0  0  0  0  0
   13.2106    0.5858    0.0000 H   0  0  0  0  0  0  0  0  0  0  0  0
   12.5906   -0.0342    0.0000 H   0  0  0  0  0  0  0  0  0  0  0  0
   12.5906   -2.0342    0.0000 H   0  0  0  0  0  0  0  0  0  0  0  0
   13.2106   -2.6542    0.0000 H   0  0  0  0  0  0  0  0  0  0  0  0
   13.8306   -2.0342    0.0000 H   0  0  0  0  0  0  0  0  0  0  0  0
   14.8306   -1.0342    0.0000 H   0  0  0  0  0  0  0  0  0  0  0  0
   14.2106   -0.4142    0.0000 H   0  0  0  0  0  0  0  0  0  0  0  0
   12.0206    0.3687    0.0000 H   0  0  0  0  0  0  0  0  0  0  0  0
   12.0206   -2.4372    0.0000 H   0  0  0  0  0  0  0  0  0  0  0  0
   10.4006    0.3687    0.0000 H   0  0  0  0  0  0  0  0  0  0  0  0
   10.4006   -2.4372    0.0000 H   0  0  0  0  0  0  0  0  0  0  0  0
    7.3196    1.2259    0.0000 H   0  0  0  0  0  0  0  0  0  0  0  0
    5.3147    1.4518    0.0000 H   0  0  0  0  0  0  0  0  0  0  0  0
    9.0206    0.3687    0.0000 H   0  0  0  0  0  0  0  0  0  0  0  0
    5.3147   -1.7882    0.0000 H   0  0  0  0  0  0  0  0  0  0  0  0
    3.9118   -0.9782    0.0000 H   0  0  0  0  0  0  0  0  0  0  0  0
    3.9389    2.2412    0.0000 H   0  0  0  0  0  0  0  0  0  0  0  0
    2.5402   -0.1814    0.0000 H   0  0  0  0  0  0  0  0  0  0  0  0
    2.2478    2.6006    0.0000 H   0  0  0  0  0  0  0  0  0  0  0  0
  1 18  2  0  0  0  0
  2 17  1  0  0  0  0
  2 21  1  0  0  0  0
  2 22  1  0  0  0  0
  3 18  1  0  0  0  0
  3 19  1  0  0  0  0
  3 43  1  0  0  0  0
  4 17  2  0  0  0  0
  4 19  1  0  0  0  0
  5 20  1  0  0  0  0
  5 25  1  0  0  0  0
  5 26  1  0  0  0  0
  6 26  2  0  0  0  0
  6 27  1  0  0  0  0
  7  8  1  0  0  0  0
  7  9  1  0  0  0  0
  7 10  1  0  0  0  0
  7 11  1  0  0  0  0
  8 12  2  0  0  0  0
  8 13  1  0  0  0  0
  9 28  1  0  0  0  0
  9 35  1  0  0  0  0
  9 36  1  0  0  0  0
 10 32  1  0  0  0  0
 10 33  1  0  0  0  0
 10 34  1  0  0  0  0
 11 29  1  0  0  0  0
 11 30  1  0  0  0  0
 11 31  1  0  0  0  0
 12 15  1  0  0  0  0
 12 37  1  0  0  0  0
 13 16  2  0  0  0  0
 13 38  1  0  0  0  0
 14 15  2  0  0  0  0
 14 16  1  0  0  0  0
 14 18  1  0  0  0  0
 15 39  1  0  0  0  0
 16 40  1  0  0  0  0
 17 23  1  0  0  0  0
 19 21  2  0  0  0  0
 20 22  2  0  0  0  0
 20 24  1  0  0  0  0
 21 41  1  0  0  0  0
 22 42  1  0  0  0  0
 23 24  2  0  0  0  0
 23 44  1  0  0  0  0
 24 45  1  0  0  0  0
 25 27  2  0  0  0  0
 25 46  1  0  0  0  0
 26 47  1  0  0  0  0
 27 48  1  0  0  0  0
M  END
> <PUBCHEM_COMPOUND_CID>
24944925

> <PUBCHEM_COMPOUND_CANONICALIZED>
1

> <PUBCHEM_CACTVS_COMPLEXITY>
525

> <PUBCHEM_CACTVS_HBOND_ACCEPTOR>
3

> <PUBCHEM_CACTVS_HBOND_DONOR>
1

> <PUBCHEM_CACTVS_ROTATABLE_BOND>
4

> <PUBCHEM_CACTVS_SUBSKEYS>
AAADceB7oAAAAAAAAAAAAAAAAAAAAWLAAAA8QAAAAAAAAFgB/AAAHgAQAAAADgjBmwQ/8J/MGACoAjd3dACCgC01EqAJ2CE4dNiIaPLAnZGUIQholQLIyacYiMCPwAAAAAAAAACAAAAAAAAAAAAAAAAAAA==

> <PUBCHEM_IUPAC_OPENEYE_NAME>
4-tert-butyl-N-(6-imidazol-1-ylimidazo[1,2-a]pyridin-2-yl)benzamide

> <PUBCHEM_IUPAC_CAS_NAME>
4-tert-butyl-N-[6-(1-imidazolyl)-2-imidazo[1,2-a]pyridinyl]benzamide

> <PUBCHEM_IUPAC_NAME>
4-tert-butyl-N-(6-imidazol-1-ylimidazo[1,2-a]pyridin-2-yl)benzamide

> <PUBCHEM_IUPAC_SYSTEMATIC_NAME>
4-tert-butyl-N-(6-imidazol-1-ylimidazo[1,2-a]pyridin-2-yl)benzamide

> <PUBCHEM_IUPAC_TRADITIONAL_NAME>
4-tert-butyl-N-(6-imidazol-1-ylimidazo[1,2-a]pyridin-2-yl)benzamide

> <PUBCHEM_IUPAC_INCHI>
InChI=1S/C21H21N5O/c1-21(2,3)16-6-4-15(5-7-16)20(27)24-18-13-26-12-17(8-9-19(26)23-18)25-11-10-22-14-25/h4-14H,1-3H3,(H,24,27)

> <PUBCHEM_IUPAC_INCHIKEY>
SMJAMOAYGIVKRI-UHFFFAOYSA-N

> <PUBCHEM_XLOGP3_AA>
4.4

> <PUBCHEM_EXACT_MASS>
359.175

> <PUBCHEM_MOLECULAR_FORMULA>
C21H21N5O

> <PUBCHEM_MOLECULAR_WEIGHT>
359.433

> <PUBCHEM_OPENEYE_CAN_SMILES>
CC(C)(C)C1=CC=C(C=C1)C(=O)NC2=CN3C=C(C=CC3=N2)N4C=CN=C4

> <PUBCHEM_OPENEYE_ISO_SMILES>
CC(C)(C)C1=CC=C(C=C1)C(=O)NC2=CN3C=C(C=CC3=N2)N4C=CN=C4

> <PUBCHEM_CACTVS_TPSA>
64.2

> <PUBCHEM_MONOISOTOPIC_WEIGHT>
359.175

> <PUBCHEM_TOTAL_CHARGE>
0

> <PUBCHEM_HEAVY_ATOM_COUNT>
27

> <PUBCHEM_ATOM_DEF_STEREO_COUNT>
0

> <PUBCHEM_ATOM_UDEF_STEREO_COUNT>
0

> <PUBCHEM_BOND_DEF_STEREO_COUNT>
0

> <PUBCHEM_BOND_UDEF_STEREO_COUNT>
0

> <PUBCHEM_ISOTOPIC_ATOM_COUNT>
0

> <PUBCHEM_COMPONENT_COUNT>
1

> <PUBCHEM_CACTVS_TAUTO_COUNT>
2

> <PUBCHEM_COORDINATE_TYPE>
1
5
255

> <PUBCHEM_BONDANNOTATIONS>
12  15  8
13  16  8
14  15  8
14  16  8
17  23  8
19  21  8
2  17  8
2  21  8
2  22  8
20  22  8
20  24  8
23  24  8
25  27  8
4  17  8
4  19  8
5  25  8
5  26  8
6  26  8
6  27  8
8  12  8
8  13  8

$$$$
71581423
  -OEChem-11021604552D

 50 54  0     1  0  0  0  0  0999 V2000
    4.0035    1.0994    0.0000 O   0  0  0  0  0  0  0  0  0  0  0  0
    8.0748   -2.6892    0.0000 O   0  0  0  0  0  0  0  0  0  0  0  0
    4.7179   -3.8997    0.0000 N   0  0  0  0  0  0  0  0  0  0  0  0
    6.3177   -0.1830    0.0000 N   0  0  0  0  0  0  0  0  0  0  0  0
    2.9056   -4.0950    0.0000 N   0  0  0  0  0  0  0  0  0  0  0  0
    5.6034    3.2066    0.0000 N   0  0  0  0  0  0  0  0  0  0  0  0
    4.7179   -2.2902    0.0000 C   0  0  0  0  0  0  0  0  0  0  0  0
    5.0286   -1.3397    0.0000 C   0  0  0  0  0  0  0  0  0  0  0  0
    4.3142    2.0499    0.0000 C   0  0  2  0  0  0  0  0  0  0  0  0
    3.7717   -2.5950    0.0000 C   0  0  0  0  0  0  0  0  0  0  0  0
    6.0071   -1.1335    0.0000 C   0  0  0  0  0  0  0  0  0  0  0  0
    4.3607   -0.5954    0.0000 C   0  0  0  0  0  0  0  0  0  0  0  0
    4.6714    0.3551    0.0000 C   0  0  0  0  0  0  0  0  0  0  0  0
    3.7717   -3.5950    0.0000 C   0  0  0  0  0  0  0  0  0  0  0  0
    5.3015   -3.0950    0.0000 C   0  0  0  0  0  0  0  0  0  0  0  0
    3.6464    2.7942    0.0000 C   0  0  0  0  0  0  0  0  0  0  0  0
    5.2927    2.2561    0.0000 C   0  0  0  0  0  0  0  0  0  0  0  0
    6.6749   -1.8778    0.0000 C   0  0  0  0  0  0  0  0  0  0  0  0
    2.9056   -2.0950    0.0000 C   0  0  0  0  0  0  0  0  0  0  0  0
    5.6499    0.5613    0.0000 C   0  0  0  0  0  0  0  0  0  0  0  0
    2.6678    2.5880    0.0000 C   0  0  0  0  0  0  0  0  0  0  0  0
    3.9570    3.7447    0.0000 C   0  0  0  0  0  0  0  0  0  0  0  0
    2.0396   -2.5950    0.0000 C   0  0  0  0  0  0  0  0  0  0  0  0
    6.4653   -2.8556    0.0000 C   0  0  0  0  0  0  0  0  0  0  0  0
    7.6696   -1.7750    0.0000 C   0  0  0  0  0  0  0  0  0  0  0  0
    2.0396   -3.5950    0.0000 C   0  0  0  0  0  0  0  0  0  0  0  0
    2.0000    3.3323    0.0000 C   0  0  0  0  0  0  0  0  0  0  0  0
    3.2892    4.4890    0.0000 C   0  0  0  0  0  0  0  0  0  0  0  0
    2.3107    4.2828    0.0000 C   0  0  0  0  0  0  0  0  0  0  0  0
    7.3305   -3.3571    0.0000 C   0  0  0  0  0  0  0  0  0  0  0  0
    4.7283    1.5884    0.0000 H   0  0  0  0  0  0  0  0  0  0  0  0
    3.7540   -0.7233    0.0000 H   0  0  0  0  0  0  0  0  0  0  0  0
    5.9215   -3.0950    0.0000 H   0  0  0  0  0  0  0  0  0  0  0  0
    5.3133    1.6365    0.0000 H   0  0  0  0  0  0  0  0  0  0  0  0
    5.9065    2.1688    0.0000 H   0  0  0  0  0  0  0  0  0  0  0  0
    4.9105   -4.4890    0.0000 H   0  0  0  0  0  0  0  0  0  0  0  0
    2.9056   -1.4750    0.0000 H   0  0  0  0  0  0  0  0  0  0  0  0
    5.8425    1.1506    0.0000 H   0  0  0  0  0  0  0  0  0  0  0  0
    2.4752    1.9987    0.0000 H   0  0  0  0  0  0  0  0  0  0  0  0
    4.5637    3.8726    0.0000 H   0  0  0  0  0  0  0  0  0  0  0  0
    1.5027   -2.2850    0.0000 H   0  0  0  0  0  0  0  0  0  0  0  0
    5.8985   -3.1068    0.0000 H   0  0  0  0  0  0  0  0  0  0  0  0
    7.9805   -1.2386    0.0000 H   0  0  0  0  0  0  0  0  0  0  0  0
    1.5027   -3.9050    0.0000 H   0  0  0  0  0  0  0  0  0  0  0  0
    6.2100    3.3345    0.0000 H   0  0  0  0  0  0  0  0  0  0  0  0
    5.1893    3.6681    0.0000 H   0  0  0  0  0  0  0  0  0  0  0  0
    1.3933    3.2044    0.0000 H   0  0  0  0  0  0  0  0  0  0  0  0
    3.4818    5.0784    0.0000 H   0  0  0  0  0  0  0  0  0  0  0  0
    1.8966    4.7443    0.0000 H   0  0  0  0  0  0  0  0  0  0  0  0
    7.3942   -3.9738    0.0000 H   0  0  0  0  0  0  0  0  0  0  0  0
  9  1  1  6  0  0  0
  1 13  1  0  0  0  0
  2 25  1  0  0  0  0
  2 30  1  0  0  0  0
  3 14  1  0  0  0  0
  3 15  1  0  0  0  0
  3 36  1  0  0  0  0
  4 11  1  0  0  0  0
  4 20  2  0  0  0  0
  5 14  1  0  0  0  0
  5 26  2  0  0  0  0
  6 17  1  0  0  0  0
  6 45  1  0  0  0  0
  6 46  1  0  0  0  0
  7  8  1  0  0  0  0
  7 10  1  0  0  0  0
  7 15  2  0  0  0  0
  8 11  2  0  0  0  0
  8 12  1  0  0  0  0
  9 16  1  0  0  0  0
  9 17  1  0  0  0  0
  9 31  1  0  0  0  0
 10 14  2  0  0  0  0
 10 19  1  0  0  0  0
 11 18  1  0  0  0  0
 12 13  2  0  0  0  0
 12 32  1  0  0  0  0
 13 20  1  0  0  0  0
 15 33  1  0  0  0  0
 16 21  2  0  0  0  0
 16 22  1  0  0  0  0
 17 34  1  0  0  0  0
 17 35  1  0  0  0  0
 18 24  1  0  0  0  0
 18 25  2  0  0  0  0
 19 23  2  0  0  0  0
 19 37  1  0  0  0  0
 20 38  1  0  0  0  0
 21 27  1  0  0  0  0
 21 39  1  0  0  0  0
 22 28  2  0  0  0  0
 22 40  1  0  0  0  0
 23 26  1  0  0  0  0
 23 41  1  0  0  0  0
 24 30  2  0  0  0  0
 24 42  1  0  0  0  0
 25 43  1  0  0  0  0
 26 44  1  0  0  0  0
 27 29  2  0  0  0  0
 27 47  1  0  0  0  0
 28 29  1  0  0  0  0
 28 48  1  0  0  0  0
 29 49  1  0  0  0  0
 30 50  1  0  0  0  0
M  END
> <PUBCHEM_COMPOUND_CID>
71581423

> <PUBCHEM_COMPOUND_CANONICALIZED>
1

> <PUBCHEM_CACTVS_COMPLEXITY>
543

> <PUBCHEM_CACTVS_HBOND_ACCEPTOR>
5

> <PUBCHEM_CACTVS_HBOND_DONOR>
2

> <PUBCHEM_CACTVS_ROTATABLE_BOND>
6

> <PUBCHEM_CACTVS_SUBSKEYS>
AAADceB7sAAAAAAAAAAAAAAAAAAAAWJAAAA8WIAAAAAAAFgB/gAAHgAQAAAADBzhnwY9tt7JlECoAz535ASCiCm1YqAJ2aE/bNiOLvrEvZuHOSju0BPY6ae82PKOgAAAAAAAAAAAAAAAAAAAAAAAAAAAAA==

> <PUBCHEM_IUPAC_OPENEYE_NAME>
(2R)-2-[[6-(3-furyl)-5-(1H-pyrrolo[2,3-b]pyridin-3-yl)-3-pyridyl]oxy]-2-phenyl-ethanamine

> <PUBCHEM_IUPAC_CAS_NAME>
(2R)-2-[[6-(3-furanyl)-5-(1H-pyrrolo[2,3-b]pyridin-3-yl)-3-pyridinyl]oxy]-2-phenylethanamine

> <PUBCHEM_IUPAC_NAME>
(2R)-2-[6-(furan-3-yl)-5-(1H-pyrrolo[2,3-b]pyridin-3-yl)pyridin-3-yl]oxy-2-phenylethanamine

> <PUBCHEM_IUPAC_SYSTEMATIC_NAME>
(2R)-2-[6-(furan-3-yl)-5-(1H-pyrrolo[2,3-b]pyridin-3-yl)pyridin-3-yl]oxy-2-phenyl-ethanamine

> <PUBCHEM_IUPAC_TRADITIONAL_NAME>
[(2R)-2-[[6-(3-furyl)-5-(1H-pyrrolo[2,3-b]pyridin-3-yl)-3-pyridyl]oxy]-2-phenyl-ethyl]amine

> <PUBCHEM_IUPAC_INCHI>
InChI=1S/C24H20N4O2/c25-12-22(16-5-2-1-3-6-16)30-18-11-20(23(27-13-18)17-8-10-29-15-17)21-14-28-24-19(21)7-4-9-26-24/h1-11,13-15,22H,12,25H2,(H,26,28)/t22-/m0/s1

> <PUBCHEM_IUPAC_INCHIKEY>
GQBPIQNQRCHGPJ-QFIPXVFZSA-N

> <PUBCHEM_XLOGP3_AA>
3.2

> <PUBCHEM_EXACT_MASS>
396.159

> <PUBCHEM_MOLECULAR_FORMULA>
C24H20N4O2

> <PUBCHEM_MOLECULAR_WEIGHT>
396.45

> <PUBCHEM_OPENEYE_CAN_SMILES>
C1=CC=C(C=C1)C(CN)OC2=CN=C(C(=C2)C3=CNC4=C3C=CC=N4)C5=COC=C5

> <PUBCHEM_OPENEYE_ISO_SMILES>
C1=CC=C(C=C1)[C@H](CN)OC2=CN=C(C(=C2)C3=CNC4=C3C=CC=N4)C5=COC=C5

> <PUBCHEM_CACTVS_TPSA>
90

> <PUBCHEM_MONOISOTOPIC_WEIGHT>
396.159

> <PUBCHEM_TOTAL_CHARGE>
0

> <PUBCHEM_HEAVY_ATOM_COUNT>
30

> <PUBCHEM_ATOM_DEF_STEREO_COUNT>
1

> <PUBCHEM_ATOM_UDEF_STEREO_COUNT>
0

> <PUBCHEM_BOND_DEF_STEREO_COUNT>
0

> <PUBCHEM_BOND_UDEF_STEREO_COUNT>
0

> <PUBCHEM_ISOTOPIC_ATOM_COUNT>
0

> <PUBCHEM_COMPONENT_COUNT>
1

> <PUBCHEM_CACTVS_TAUTO_COUNT>
2

> <PUBCHEM_COORDINATE_TYPE>
1
5
255

> <PUBCHEM_BONDANNOTATIONS>
9  1  6
10  14  8
10  19  8
12  13  8
13  20  8
16  21  8
16  22  8
18  24  8
18  25  8
19  23  8
2  25  8
2  30  8
21  27  8
22  28  8
23  26  8
24  30  8
27  29  8
28  29  8
3  14  8
3  15  8
4  11  8
4  20  8
5  14  8
5  26  8
7  10  8
7  15  8
8  11  8
8  12  8

$$$$
71581421
  -OEChem-11021604552D

 37 39  0     0  0  0  0  0  0999 V2000
    5.1350   -1.5600    0.0000 O   0  0  0  0  0  0  0  0  0  0  0  0
    6.0010    2.9400    0.0000 O   0  0  0  0  0  0  0  0  0  0  0  0
    2.5369   -3.0600    0.0000 N   0  0  0  0  0  0  0  0  0  0  0  0
    6.9473    1.2447    0.0000 N   0  0  0  0  0  0  0  0  0  0  0  0
    4.2690    2.9400    0.0000 N   0  0  0  0  0  0  0  0  0  0  0  0
    7.5686   -2.2658    0.0000 N   0  0  0  0  0  0  0  0  0  0  0  0
    4.2690   -2.0600    0.0000 C   0  0  0  0  0  0  0  0  0  0  0  0
    3.4030   -1.5600    0.0000 C   0  0  0  0  0  0  0  0  0  0  0  0
    4.2690   -3.0600    0.0000 C   0  0  0  0  0  0  0  0  0  0  0  0
    3.4030   -3.5600    0.0000 C   0  0  0  0  0  0  0  0  0  0  0  0
    2.5369   -2.0600    0.0000 C   0  0  0  0  0  0  0  0  0  0  0  0
    5.1350   -0.5600    0.0000 C   0  0  0  0  0  0  0  0  0  0  0  0
    6.0010   -0.0600    0.0000 C   0  0  0  0  0  0  0  0  0  0  0  0
    6.0010    0.9400    0.0000 C   0  0  0  0  0  0  0  0  0  0  0  0
    4.2690   -0.0600    0.0000 C   0  0  0  0  0  0  0  0  0  0  0  0
    5.1350    1.4400    0.0000 C   0  0  0  0  0  0  0  0  0  0  0  0
    6.9473   -0.3647    0.0000 C   0  0  0  0  0  0  0  0  0  0  0  0
    4.2690    0.9400    0.0000 C   0  0  0  0  0  0  0  0  0  0  0  0
    7.5309    0.4400    0.0000 C   0  0  0  0  0  0  0  0  0  0  0  0
    5.1350    2.4400    0.0000 C   0  0  0  0  0  0  0  0  0  0  0  0
    7.2579   -1.3152    0.0000 C   0  0  0  0  0  0  0  0  0  0  0  0
    4.2690   -1.4400    0.0000 H   0  0  0  0  0  0  0  0  0  0  0  0
    4.4810   -3.6426    0.0000 H   0  0  0  0  0  0  0  0  0  0  0  0
    4.8796   -2.9523    0.0000 H   0  0  0  0  0  0  0  0  0  0  0  0
    3.8015   -1.0850    0.0000 H   0  0  0  0  0  0  0  0  0  0  0  0
    3.0044   -1.0850    0.0000 H   0  0  0  0  0  0  0  0  0  0  0  0
    3.0044   -4.0350    0.0000 H   0  0  0  0  0  0  0  0  0  0  0  0
    3.8015   -4.0350    0.0000 H   0  0  0  0  0  0  0  0  0  0  0  0
    2.3249   -1.4774    0.0000 H   0  0  0  0  0  0  0  0  0  0  0  0
    1.9264   -2.1677    0.0000 H   0  0  0  0  0  0  0  0  0  0  0  0
    2.0000   -3.3700    0.0000 H   0  0  0  0  0  0  0  0  0  0  0  0
    3.7320   -0.3700    0.0000 H   0  0  0  0  0  0  0  0  0  0  0  0
    7.1399    1.8340    0.0000 H   0  0  0  0  0  0  0  0  0  0  0  0
    3.7320    1.2500    0.0000 H   0  0  0  0  0  0  0  0  0  0  0  0
    8.1509    0.4400    0.0000 H   0  0  0  0  0  0  0  0  0  0  0  0
    4.2690    3.5600    0.0000 H   0  0  0  0  0  0  0  0  0  0  0  0
    3.7320    2.6300    0.0000 H   0  0  0  0  0  0  0  0  0  0  0  0
  1  7  1  0  0  0  0
  1 12  1  0  0  0  0
  2 20  2  0  0  0  0
  3 10  1  0  0  0  0
  3 11  1  0  0  0  0
  3 31  1  0  0  0  0
  4 14  1  0  0  0  0
  4 19  1  0  0  0  0
  4 33  1  0  0  0  0
  5 20  1  0  0  0  0
  5 36  1  0  0  0  0
  5 37  1  0  0  0  0
  6 21  3  0  0  0  0
  7  8  1  0  0  0  0
  7  9  1  0  0  0  0
  7 22  1  0  0  0  0
  8 11  1  0  0  0  0
  8 25  1  0  0  0  0
  8 26  1  0  0  0  0
  9 10  1  0  0  0  0
  9 23  1  0  0  0  0
  9 24  1  0  0  0  0
 10 27  1  0  0  0  0
 10 28  1  0  0  0  0
 11 29  1  0  0  0  0
 11 30  1  0  0  0  0
 12 13  2  0  0  0  0
 12 15  1  0  0  0  0
 13 14  1  0  0  0  0
 13 17  1  0  0  0  0
 14 16  2  0  0  0  0
 15 18  2  0  0  0  0
 15 32  1  0  0  0  0
 16 18  1  0  0  0  0
 16 20  1  0  0  0  0
 17 19  2  0  0  0  0
 17 21  1  0  0  0  0
 18 34  1  0  0  0  0
 19 35  1  0  0  0  0
M  END
> <PUBCHEM_COMPOUND_CID>
71581421

> <PUBCHEM_COMPOUND_CANONICALIZED>
1

> <PUBCHEM_CACTVS_COMPLEXITY>
440

> <PUBCHEM_CACTVS_HBOND_ACCEPTOR>
4

> <PUBCHEM_CACTVS_HBOND_DONOR>
3

> <PUBCHEM_CACTVS_ROTATABLE_BOND>
3

> <PUBCHEM_CACTVS_SUBSKEYS>
AAADceBzsAAAAAAAAAAAAAAAAAAAAWAAAAA8QAAAAAAAAFgB8AAAHgAQAAAADBzhngY8xvLJlAC4BzV3VACiiCA1ICAI2aEuTNgMpvrE9JuGOajm0BnI6c+43OPOoAACAgAKAABAAAQEABQAAAAAAAAAAA==

> <PUBCHEM_IUPAC_OPENEYE_NAME>
3-cyano-4-(4-piperidyloxy)-1H-indole-7-carboxamide

> <PUBCHEM_IUPAC_CAS_NAME>
3-cyano-4-(4-piperidinyloxy)-1H-indole-7-carboxamide

> <PUBCHEM_IUPAC_NAME>
3-cyano-4-piperidin-4-yloxy-1H-indole-7-carboxamide

> <PUBCHEM_IUPAC_SYSTEMATIC_NAME>
3-cyano-4-piperidin-4-yloxy-1H-indole-7-carboxamide

> <PUBCHEM_IUPAC_TRADITIONAL_NAME>
3-cyano-4-(4-piperidyloxy)-1H-indole-7-carboxamide

> <PUBCHEM_IUPAC_INCHI>
InChI=1S/C15H16N4O2/c16-7-9-8-19-14-11(15(17)20)1-2-12(13(9)14)21-10-3-5-18-6-4-10/h1-2,8,10,18-19H,3-6H2,(H2,17,20)

> <PUBCHEM_IUPAC_INCHIKEY>
LJQBAOLMNHGSQC-UHFFFAOYSA-N

> <PUBCHEM_XLOGP3_AA>
0.7

> <PUBCHEM_EXACT_MASS>
284.127

> <PUBCHEM_MOLECULAR_FORMULA>
C15H16N4O2

> <PUBCHEM_MOLECULAR_WEIGHT>
284.319

> <PUBCHEM_OPENEYE_CAN_SMILES>
C1CNCCC1OC2=C3C(=CNC3=C(C=C2)C(=O)N)C#N

> <PUBCHEM_OPENEYE_ISO_SMILES>
C1CNCCC1OC2=C3C(=CNC3=C(C=C2)C(=O)N)C#N

> <PUBCHEM_CACTVS_TPSA>
104

> <PUBCHEM_MONOISOTOPIC_WEIGHT>
284.127

> <PUBCHEM_TOTAL_CHARGE>
0

> <PUBCHEM_HEAVY_ATOM_COUNT>
21

> <PUBCHEM_ATOM_DEF_STEREO_COUNT>
0

> <PUBCHEM_ATOM_UDEF_STEREO_COUNT>
0

> <PUBCHEM_BOND_DEF_STEREO_COUNT>
0

> <PUBCHEM_BOND_UDEF_STEREO_COUNT>
0

> <PUBCHEM_ISOTOPIC_ATOM_COUNT>
0

> <PUBCHEM_COMPONENT_COUNT>
1

> <PUBCHEM_CACTVS_TAUTO_COUNT>
7

> <PUBCHEM_COORDINATE_TYPE>
1
5
255

> <PUBCHEM_BONDANNOTATIONS>
12  13  8
12  15  8
13  14  8
13  17  8
14  16  8
15  18  8
16  18  8
17  19  8
4  14  8
4  19  8

$$$$
71581422
  -OEChem-11021604552D

 35 37  0     0  0  0  0  0  0999 V2000
    6.7523    0.7587    0.0000 S   0  0  0  0  0  0  0  0  0  0  0  0
    5.9405   -0.8277    0.0000 S   0  0  0  0  0  0  0  0  0  0  0  0
    6.1659    1.5687    0.0000 O   0  0  0  0  0  0  0  0  0  0  0  0
    7.3387   -0.0514    0.0000 O   0  0  0  0  0  0  0  0  0  0  0  0
    7.5623    1.3450    0.0000 N   0  0  0  0  0  0  0  0  0  0  0  0
    4.6783   -3.6951    0.0000 N   0  0  0  0  0  0  0  0  0  0  0  0
    2.8660   -3.8903    0.0000 N   0  0  0  0  0  0  0  0  0  0  0  0
    8.1667    3.9208    0.0000 N   0  0  0  0  0  0  0  0  0  0  0  0
    4.6783   -2.0856    0.0000 C   0  0  0  0  0  0  0  0  0  0  0  0
    4.9889   -1.1351    0.0000 C   0  0  0  0  0  0  0  0  0  0  0  0
    3.7320   -2.3903    0.0000 C   0  0  0  0  0  0  0  0  0  0  0  0
    5.9422    0.1723    0.0000 C   0  0  0  0  0  0  0  0  0  0  0  0
    3.7320   -3.3903    0.0000 C   0  0  0  0  0  0  0  0  0  0  0  0
    5.2619   -2.8903    0.0000 C   0  0  0  0  0  0  0  0  0  0  0  0
    4.4026   -0.3251    0.0000 C   0  0  0  0  0  0  0  0  0  0  0  0
    4.9917    0.4829    0.0000 C   0  0  0  0  0  0  0  0  0  0  0  0
    7.4595    2.3398    0.0000 C   0  0  0  0  0  0  0  0  0  0  0  0
    2.8660   -1.8903    0.0000 C   0  0  0  0  0  0  0  0  0  0  0  0
    8.2695    2.9261    0.0000 C   0  0  0  0  0  0  0  0  0  0  0  0
    2.0000   -2.3903    0.0000 C   0  0  0  0  0  0  0  0  0  0  0  0
    2.0000   -3.3903    0.0000 C   0  0  0  0  0  0  0  0  0  0  0  0
    3.7826   -0.3240    0.0000 H   0  0  0  0  0  0  0  0  0  0  0  0
    5.8819   -2.8903    0.0000 H   0  0  0  0  0  0  0  0  0  0  0  0
    4.8012    1.0729    0.0000 H   0  0  0  0  0  0  0  0  0  0  0  0
    8.1283    1.0919    0.0000 H   0  0  0  0  0  0  0  0  0  0  0  0
    7.1887    2.8975    0.0000 H   0  0  0  0  0  0  0  0  0  0  0  0
    6.8632    2.1699    0.0000 H   0  0  0  0  0  0  0  0  0  0  0  0
    4.8709   -4.2844    0.0000 H   0  0  0  0  0  0  0  0  0  0  0  0
    2.8660   -1.2703    0.0000 H   0  0  0  0  0  0  0  0  0  0  0  0
    8.5404    2.3684    0.0000 H   0  0  0  0  0  0  0  0  0  0  0  0
    8.8658    3.0960    0.0000 H   0  0  0  0  0  0  0  0  0  0  0  0
    1.4631   -2.0803    0.0000 H   0  0  0  0  0  0  0  0  0  0  0  0
    1.4631   -3.7003    0.0000 H   0  0  0  0  0  0  0  0  0  0  0  0
    8.6690    4.2844    0.0000 H   0  0  0  0  0  0  0  0  0  0  0  0
    7.6008    4.1740    0.0000 H   0  0  0  0  0  0  0  0  0  0  0  0
  1  3  2  0  0  0  0
  1  4  2  0  0  0  0
  1  5  1  0  0  0  0
  1 12  1  0  0  0  0
  2 10  1  0  0  0  0
  2 12  1  0  0  0  0
  5 17  1  0  0  0  0
  5 25  1  0  0  0  0
  6 13  1  0  0  0  0
  6 14  1  0  0  0  0
  6 28  1  0  0  0  0
  7 13  1  0  0  0  0
  7 21  2  0  0  0  0
  8 19  1  0  0  0  0
  8 34  1  0  0  0  0
  8 35  1  0  0  0  0
  9 10  1  0  0  0  0
  9 11  1  0  0  0  0
  9 14  2  0  0  0  0
 10 15  2  0  0  0  0
 11 13  2  0  0  0  0
 11 18  1  0  0  0  0
 12 16  2  0  0  0  0
 14 23  1  0  0  0  0
 15 16  1  0  0  0  0
 15 22  1  0  0  0  0
 16 24  1  0  0  0  0
 17 19  1  0  0  0  0
 17 26  1  0  0  0  0
 17 27  1  0  0  0  0
 18 20  2  0  0  0  0
 18 29  1  0  0  0  0
 19 30  1  0  0  0  0
 19 31  1  0  0  0  0
 20 21  1  0  0  0  0
 20 32  1  0  0  0  0
 21 33  1  0  0  0  0
M  END
> <PUBCHEM_COMPOUND_CID>
71581422

> <PUBCHEM_COMPOUND_CANONICALIZED>
1

> <PUBCHEM_CACTVS_COMPLEXITY>
454

> <PUBCHEM_CACTVS_HBOND_ACCEPTOR>
6

> <PUBCHEM_CACTVS_HBOND_DONOR>
3

> <PUBCHEM_CACTVS_ROTATABLE_BOND>
5

> <PUBCHEM_CACTVS_SUBSKEYS>
AAADccBzsABgAAAAAAAAAAAAAAAAAWJAAAAsAAAAAAAAAFgB/gAAHAQQQAAADADBWwQ9sd7JkAqkAjJnZHDDgbmxCrBJ2bg4ZJiIaOLgmZGEIAhokALoyCcQgMAOgAAAAAAAAAAAAAAAAAAAAAAAAAAAAA==

> <PUBCHEM_IUPAC_OPENEYE_NAME>
N-(2-aminoethyl)-5-(1H-pyrrolo[2,3-b]pyridin-3-yl)thiophene-2-sulfonamide

> <PUBCHEM_IUPAC_CAS_NAME>
N-(2-aminoethyl)-5-(1H-pyrrolo[2,3-b]pyridin-3-yl)-2-thiophenesulfonamide

> <PUBCHEM_IUPAC_NAME>
N-(2-aminoethyl)-5-(1H-pyrrolo[2,3-b]pyridin-3-yl)thiophene-2-sulfonamide

> <PUBCHEM_IUPAC_SYSTEMATIC_NAME>
N-(2-azanylethyl)-5-(1H-pyrrolo[2,3-b]pyridin-3-yl)thiophene-2-sulfonamide

> <PUBCHEM_IUPAC_TRADITIONAL_NAME>
N-(2-aminoethyl)-5-(1H-pyrrolo[2,3-b]pyridin-3-yl)thiophene-2-sulfonamide

> <PUBCHEM_IUPAC_INCHI>
InChI=1S/C13H14N4O2S2/c14-5-7-17-21(18,19)12-4-3-11(20-12)10-8-16-13-9(10)2-1-6-15-13/h1-4,6,8,17H,5,7,14H2,(H,15,16)

> <PUBCHEM_IUPAC_INCHIKEY>
ODZMLPDPZFTGIU-UHFFFAOYSA-N

> <PUBCHEM_XLOGP3_AA>
1

> <PUBCHEM_EXACT_MASS>
322.056

> <PUBCHEM_MOLECULAR_FORMULA>
C13H14N4O2S2

> <PUBCHEM_MOLECULAR_WEIGHT>
322.401

> <PUBCHEM_OPENEYE_CAN_SMILES>
C1=CC2=C(NC=C2C3=CC=C(S3)S(=O)(=O)NCCN)N=C1

> <PUBCHEM_OPENEYE_ISO_SMILES>
C1=CC2=C(NC=C2C3=CC=C(S3)S(=O)(=O)NCCN)N=C1

> <PUBCHEM_CACTVS_TPSA>
138

> <PUBCHEM_MONOISOTOPIC_WEIGHT>
322.056

> <PUBCHEM_TOTAL_CHARGE>
0

> <PUBCHEM_HEAVY_ATOM_COUNT>
21

> <PUBCHEM_ATOM_DEF_STEREO_COUNT>
0

> <PUBCHEM_ATOM_UDEF_STEREO_COUNT>
0

> <PUBCHEM_BOND_DEF_STEREO_COUNT>
0

> <PUBCHEM_BOND_UDEF_STEREO_COUNT>
0

> <PUBCHEM_ISOTOPIC_ATOM_COUNT>
0

> <PUBCHEM_COMPONENT_COUNT>
1

> <PUBCHEM_CACTVS_TAUTO_COUNT>
2

> <PUBCHEM_COORDINATE_TYPE>
1
5
255

> <PUBCHEM_BONDANNOTATIONS>
10  15  8
11  13  8
11  18  8
12  16  8
15  16  8
18  20  8
2  10  8
2  12  8
20  21  8
6  13  8
6  14  8
7  13  8
7  21  8
9  11  8
9  14  8

$$$$
24945008
  -OEChem-11021604552D

 48 51  0     0  0  0  0  0  0999 V2000
    9.3272   -1.9002    0.0000 O   0  0  0  0  0  0  0  0  0  0  0  0
    6.7974    0.3318    0.0000 N   0  0  0  0  0  0  0  0  0  0  0  0
    9.3272   -0.1682    0.0000 N   0  0  0  0  0  0  0  0  0  0  0  0
    7.7436   -0.9729    0.0000 N   0  0  0  0  0  0  0  0  0  0  0  0
    2.6166    1.1682    0.0000 N   0  0  0  0  0  0  0  0  0  0  0  0
    3.1166    2.0342    0.0000 N   0  0  0  0  0  0  0  0  0  0  0  0
   13.8272   -1.0342    0.0000 C   0  0  0  0  0  0  0  0  0  0  0  0
   12.8272   -1.0342    0.0000 C   0  0  0  0  0  0  0  0  0  0  0  0
   14.8272   -1.0342    0.0000 C   0  0  0  0  0  0  0  0  0  0  0  0
   13.8272   -2.0342    0.0000 C   0  0  0  0  0  0  0  0  0  0  0  0
   13.8272   -0.0342    0.0000 C   0  0  0  0  0  0  0  0  0  0  0  0
   12.3272   -0.1682    0.0000 C   0  0  0  0  0  0  0  0  0  0  0  0
   12.3272   -1.9002    0.0000 C   0  0  0  0  0  0  0  0  0  0  0  0
   10.8272   -1.0342    0.0000 C   0  0  0  0  0  0  0  0  0  0  0  0
   11.3272   -0.1682    0.0000 C   0  0  0  0  0  0  0  0  0  0  0  0
   11.3272   -1.9002    0.0000 C   0  0  0  0  0  0  0  0  0  0  0  0
    6.7974   -0.6682    0.0000 C   0  0  0  0  0  0  0  0  0  0  0  0
    9.8272   -1.0342    0.0000 C   0  0  0  0  0  0  0  0  0  0  0  0
    8.3272   -0.1682    0.0000 C   0  0  0  0  0  0  0  0  0  0  0  0
    5.0653    0.3318    0.0000 C   0  0  0  0  0  0  0  0  0  0  0  0
    7.7436    0.6365    0.0000 C   0  0  0  0  0  0  0  0  0  0  0  0
    5.9313    0.8318    0.0000 C   0  0  0  0  0  0  0  0  0  0  0  0
    5.9313   -1.1682    0.0000 C   0  0  0  0  0  0  0  0  0  0  0  0
    5.0653   -0.6682    0.0000 C   0  0  0  0  0  0  0  0  0  0  0  0
    4.1993    0.8318    0.0000 C   0  0  0  0  0  0  0  0  0  0  0  0
    3.2857    0.4251    0.0000 C   0  0  0  0  0  0  0  0  0  0  0  0
    4.0948    1.8263    0.0000 C   0  0  0  0  0  0  0  0  0  0  0  0
   14.4472   -0.0342    0.0000 H   0  0  0  0  0  0  0  0  0  0  0  0
   13.2072   -2.0342    0.0000 H   0  0  0  0  0  0  0  0  0  0  0  0
   13.8272   -2.6542    0.0000 H   0  0  0  0  0  0  0  0  0  0  0  0
   14.4472   -2.0342    0.0000 H   0  0  0  0  0  0  0  0  0  0  0  0
   14.8272   -1.6542    0.0000 H   0  0  0  0  0  0  0  0  0  0  0  0
   15.4472   -1.0342    0.0000 H   0  0  0  0  0  0  0  0  0  0  0  0
   14.8272   -0.4142    0.0000 H   0  0  0  0  0  0  0  0  0  0  0  0
   13.8272    0.5858    0.0000 H   0  0  0  0  0  0  0  0  0  0  0  0
   13.2072   -0.0342    0.0000 H   0  0  0  0  0  0  0  0  0  0  0  0
   12.6372    0.3687    0.0000 H   0  0  0  0  0  0  0  0  0  0  0  0
   12.6372   -2.4372    0.0000 H   0  0  0  0  0  0  0  0  0  0  0  0
   11.0172    0.3687    0.0000 H   0  0  0  0  0  0  0  0  0  0  0  0
   11.0172   -2.4372    0.0000 H   0  0  0  0  0  0  0  0  0  0  0  0
    7.9362    1.2259    0.0000 H   0  0  0  0  0  0  0  0  0  0  0  0
    5.9313    1.4518    0.0000 H   0  0  0  0  0  0  0  0  0  0  0  0
    9.6372    0.3687    0.0000 H   0  0  0  0  0  0  0  0  0  0  0  0
    5.9313   -1.7882    0.0000 H   0  0  0  0  0  0  0  0  0  0  0  0
    4.5284   -0.9782    0.0000 H   0  0  0  0  0  0  0  0  0  0  0  0
    3.1568   -0.1814    0.0000 H   0  0  0  0  0  0  0  0  0  0  0  0
    4.5555    2.2412    0.0000 H   0  0  0  0  0  0  0  0  0  0  0  0
    2.0000    1.1034    0.0000 H   0  0  0  0  0  0  0  0  0  0  0  0
  1 18  2  0  0  0  0
  2 17  1  0  0  0  0
  2 21  1  0  0  0  0
  2 22  1  0  0  0  0
  3 18  1  0  0  0  0
  3 19  1  0  0  0  0
  3 43  1  0  0  0  0
  4 17  2  0  0  0  0
  4 19  1  0  0  0  0
  5  6  1  0  0  0  0
  5 26  1  0  0  0  0
  5 48  1  0  0  0  0
  6 27  2  0  0  0  0
  7  8  1  0  0  0  0
  7  9  1  0  0  0  0
  7 10  1  0  0  0  0
  7 11  1  0  0  0  0
  8 12  2  0  0  0  0
  8 13  1  0  0  0  0
  9 32  1  0  0  0  0
  9 33  1  0  0  0  0
  9 34  1  0  0  0  0
 10 29  1  0  0  0  0
 10 30  1  0  0  0  0
 10 31  1  0  0  0  0
 11 28  1  0  0  0  0
 11 35  1  0  0  0  0
 11 36  1  0  0  0  0
 12 15  1  0  0  0  0
 12 37  1  0  0  0  0
 13 16  2  0  0  0  0
 13 38  1  0  0  0  0
 14 15  2  0  0  0  0
 14 16  1  0  0  0  0
 14 18  1  0  0  0  0
 15 39  1  0  0  0  0
 16 40  1  0  0  0  0
 17 23  1  0  0  0  0
 19 21  2  0  0  0  0
 20 22  2  0  0  0  0
 20 24  1  0  0  0  0
 20 25  1  0  0  0  0
 21 41  1  0  0  0  0
 22 42  1  0  0  0  0
 23 24  2  0  0  0  0
 23 44  1  0  0  0  0
 24 45  1  0  0  0  0
 25 26  2  0  0  0  0
 25 27  1  0  0  0  0
 26 46  1  0  0  0  0
 27 47  1  0  0  0  0
M  END
> <PUBCHEM_COMPOUND_CID>
24945008

> <PUBCHEM_COMPOUND_CANONICALIZED>
1

> <PUBCHEM_CACTVS_COMPLEXITY>
525

> <PUBCHEM_CACTVS_HBOND_ACCEPTOR>
3

> <PUBCHEM_CACTVS_HBOND_DONOR>
2

> <PUBCHEM_CACTVS_ROTATABLE_BOND>
4

> <PUBCHEM_CACTVS_SUBSKEYS>
AAADceB7oAAAAAAAAAAAAAAAAAAAAWLAAAA8QAAAAAAAAFgB/AAAHgAYAAAADgDBmwQ/sJ/vGACqAjN3dACShC01kqAZ+aE4dNiIaPLA3dGUpQhonQLIyacYiMCPwAAAAAAAAACAAAAAAAAAAAAAAAAAAA==

> <PUBCHEM_IUPAC_OPENEYE_NAME>
4-tert-butyl-N-[6-(1H-pyrazol-4-yl)imidazo[1,2-a]pyridin-2-yl]benzamide

> <PUBCHEM_IUPAC_CAS_NAME>
4-tert-butyl-N-[6-(1H-pyrazol-4-yl)-2-imidazo[1,2-a]pyridinyl]benzamide

> <PUBCHEM_IUPAC_NAME>
4-tert-butyl-N-[6-(1H-pyrazol-4-yl)imidazo[1,2-a]pyridin-2-yl]benzamide

> <PUBCHEM_IUPAC_SYSTEMATIC_NAME>
4-tert-butyl-N-[6-(1H-pyrazol-4-yl)imidazo[1,2-a]pyridin-2-yl]benzamide

> <PUBCHEM_IUPAC_TRADITIONAL_NAME>
4-tert-butyl-N-[6-(1H-pyrazol-4-yl)imidazo[1,2-a]pyridin-2-yl]benzamide

> <PUBCHEM_IUPAC_INCHI>
InChI=1S/C21H21N5O/c1-21(2,3)17-7-4-14(5-8-17)20(27)25-18-13-26-12-15(6-9-19(26)24-18)16-10-22-23-11-16/h4-13H,1-3H3,(H,22,23)(H,25,27)

> <PUBCHEM_IUPAC_INCHIKEY>
XBKNNPZVSZKDRB-UHFFFAOYSA-N

> <PUBCHEM_XLOGP3_AA>
4.5

> <PUBCHEM_EXACT_MASS>
359.175

> <PUBCHEM_MOLECULAR_FORMULA>
C21H21N5O

> <PUBCHEM_MOLECULAR_WEIGHT>
359.433

> <PUBCHEM_OPENEYE_CAN_SMILES>
CC(C)(C)C1=CC=C(C=C1)C(=O)NC2=CN3C=C(C=CC3=N2)C4=CNN=C4

> <PUBCHEM_OPENEYE_ISO_SMILES>
CC(C)(C)C1=CC=C(C=C1)C(=O)NC2=CN3C=C(C=CC3=N2)C4=CNN=C4

> <PUBCHEM_CACTVS_TPSA>
75.1

> <PUBCHEM_MONOISOTOPIC_WEIGHT>
359.175

> <PUBCHEM_TOTAL_CHARGE>
0

> <PUBCHEM_HEAVY_ATOM_COUNT>
27

> <PUBCHEM_ATOM_DEF_STEREO_COUNT>
0

> <PUBCHEM_ATOM_UDEF_STEREO_COUNT>
0

> <PUBCHEM_BOND_DEF_STEREO_COUNT>
0

> <PUBCHEM_BOND_UDEF_STEREO_COUNT>
0

> <PUBCHEM_ISOTOPIC_ATOM_COUNT>
0

> <PUBCHEM_COMPONENT_COUNT>
1

> <PUBCHEM_CACTVS_TAUTO_COUNT>
2

> <PUBCHEM_COORDINATE_TYPE>
1
5
255

> <PUBCHEM_BONDANNOTATIONS>
12  15  8
13  16  8
14  15  8
14  16  8
17  23  8
19  21  8
2  17  8
2  21  8
2  22  8
20  22  8
20  24  8
23  24  8
25  26  8
25  27  8
4  17  8
4  19  8
5  26  8
5  6  8
6  27  8
8  12  8
8  13  8

$$$$
25214468
  -OEChem-11021604552D

 39 42  0     0  0  0  0  0  0999 V2000
    2.0000   -2.2500    0.0000 F   0  0  0  0  0  0  0  0  0  0  0  0
    3.3660   -2.6160    0.0000 F   0  0  0  0  0  0  0  0  0  0  0  0
    2.3660   -0.8840    0.0000 F   0  0  0  0  0  0  0  0  0  0  0  0
    7.9939   -2.4820    0.0000 O   0  0  0  0  0  0  0  0  0  0  0  0
    4.5981    1.2500    0.0000 N   0  0  0  0  0  0  0  0  0  0  0  0
    5.4641   -0.2500    0.0000 N   0  0  0  0  0  0  0  0  0  0  0  0
    6.4103    0.0547    0.0000 N   0  0  0  0  0  0  0  0  0  0  0  0
    6.4103   -1.5547    0.0000 N   0  0  0  0  0  0  0  0  0  0  0  0
    7.9939   -0.7500    0.0000 N   0  0  0  0  0  0  0  0  0  0  0  0
   10.9939   -2.4820    0.0000 N   0  0  0  0  0  0  0  0  0  0  0  0
    3.7320    1.7500    0.0000 C   0  0  0  0  0  0  0  0  0  0  0  0
    3.2320    2.6160    0.0000 C   0  0  0  0  0  0  0  0  0  0  0  0
    2.7320    1.7500    0.0000 C   0  0  0  0  0  0  0  0  0  0  0  0
    4.5981    0.2500    0.0000 C   0  0  0  0  0  0  0  0  0  0  0  0
    3.7320   -0.2500    0.0000 C   0  0  0  0  0  0  0  0  0  0  0  0
    5.4641   -1.2500    0.0000 C   0  0  0  0  0  0  0  0  0  0  0  0
    3.7320   -1.2500    0.0000 C   0  0  0  0  0  0  0  0  0  0  0  0
    4.5981   -1.7500    0.0000 C   0  0  0  0  0  0  0  0  0  0  0  0
    6.9939   -0.7500    0.0000 C   0  0  0  0  0  0  0  0  0  0  0  0
    2.8660   -1.7500    0.0000 C   0  0  0  0  0  0  0  0  0  0  0  0
    8.4939   -1.6160    0.0000 C   0  0  0  0  0  0  0  0  0  0  0  0
    9.4939   -1.6160    0.0000 C   0  0  0  0  0  0  0  0  0  0  0  0
    9.9939   -0.7500    0.0000 C   0  0  0  0  0  0  0  0  0  0  0  0
    9.9939   -2.4820    0.0000 C   0  0  0  0  0  0  0  0  0  0  0  0
   10.9939   -0.7500    0.0000 C   0  0  0  0  0  0  0  0  0  0  0  0
   11.4939   -1.6160    0.0000 C   0  0  0  0  0  0  0  0  0  0  0  0
    3.5716    1.1511    0.0000 H   0  0  0  0  0  0  0  0  0  0  0  0
    2.1494    1.9620    0.0000 H   0  0  0  0  0  0  0  0  0  0  0  0
    2.6244    1.1394    0.0000 H   0  0  0  0  0  0  0  0  0  0  0  0
    3.7070    3.0146    0.0000 H   0  0  0  0  0  0  0  0  0  0  0  0
    2.7571    3.0146    0.0000 H   0  0  0  0  0  0  0  0  0  0  0  0
    5.1350    1.5600    0.0000 H   0  0  0  0  0  0  0  0  0  0  0  0
    3.1951    0.0600    0.0000 H   0  0  0  0  0  0  0  0  0  0  0  0
    4.5981   -2.3700    0.0000 H   0  0  0  0  0  0  0  0  0  0  0  0
    8.3039   -0.2131    0.0000 H   0  0  0  0  0  0  0  0  0  0  0  0
    9.6839   -0.2131    0.0000 H   0  0  0  0  0  0  0  0  0  0  0  0
    9.6839   -3.0190    0.0000 H   0  0  0  0  0  0  0  0  0  0  0  0
   11.3039   -0.2131    0.0000 H   0  0  0  0  0  0  0  0  0  0  0  0
   12.1139   -1.6160    0.0000 H   0  0  0  0  0  0  0  0  0  0  0  0
  1 20  1  0  0  0  0
  2 20  1  0  0  0  0
  3 20  1  0  0  0  0
  4 21  2  0  0  0  0
  5 11  1  0  0  0  0
  5 14  1  0  0  0  0
  5 32  1  0  0  0  0
  6  7  1  0  0  0  0
  6 14  1  0  0  0  0
  6 16  1  0  0  0  0
  7 19  2  0  0  0  0
  8 16  2  0  0  0  0
  8 19  1  0  0  0  0
  9 19  1  0  0  0  0
  9 21  1  0  0  0  0
  9 35  1  0  0  0  0
 10 24  1  0  0  0  0
 10 26  2  0  0  0  0
 11 12  1  0  0  0  0
 11 13  1  0  0  0  0
 11 27  1  0  0  0  0
 12 13  1  0  0  0  0
 12 30  1  0  0  0  0
 12 31  1  0  0  0  0
 13 28  1  0  0  0  0
 13 29  1  0  0  0  0
 14 15  2  0  0  0  0
 15 17  1  0  0  0  0
 15 33  1  0  0  0  0
 16 18  1  0  0  0  0
 17 18  2  0  0  0  0
 17 20  1  0  0  0  0
 18 34  1  0  0  0  0
 21 22  1  0  0  0  0
 22 23  1  0  0  0  0
 22 24  2  0  0  0  0
 23 25  2  0  0  0  0
 23 36  1  0  0  0  0
 24 37  1  0  0  0  0
 25 26  1  0  0  0  0
 25 38  1  0  0  0  0
 26 39  1  0  0  0  0
M  END
> <PUBCHEM_COMPOUND_CID>
25214468

> <PUBCHEM_COMPOUND_CANONICALIZED>
1

> <PUBCHEM_CACTVS_COMPLEXITY>
529

> <PUBCHEM_CACTVS_HBOND_ACCEPTOR>
8

> <PUBCHEM_CACTVS_HBOND_DONOR>
2

> <PUBCHEM_CACTVS_ROTATABLE_BOND>
4

> <PUBCHEM_CACTVS_SUBSKEYS>
AAADccB7oYAAAAAAAAAAAAAAGAAAAWAAAAAsWAAAAAAAAFgB+AAAHwAYAAAADCjBmxQ9sJ7IEACqAjN3dACShCs1AqAd2KE4ZNiIKPrA3ZGEoYh4mQLIyeYYAQAOAAAAAAAAAAAAAAAAAAAAAAAAAAAAAA==

> <PUBCHEM_IUPAC_OPENEYE_NAME>
N-[5-(cyclopropylamino)-7-(trifluoromethyl)-[1,2,4]triazolo[1,5-a]pyridin-2-yl]pyridine-3-carboxamide

> <PUBCHEM_IUPAC_CAS_NAME>
N-[5-(cyclopropylamino)-7-(trifluoromethyl)-[1,2,4]triazolo[1,5-a]pyridin-2-yl]-3-pyridinecarboxamide

> <PUBCHEM_IUPAC_NAME>
N-[5-(cyclopropylamino)-7-(trifluoromethyl)-[1,2,4]triazolo[1,5-a]pyridin-2-yl]pyridine-3-carboxamide

> <PUBCHEM_IUPAC_SYSTEMATIC_NAME>
N-[5-(cyclopropylamino)-7-(trifluoromethyl)-[1,2,4]triazolo[1,5-a]pyridin-2-yl]pyridine-3-carboxamide

> <PUBCHEM_IUPAC_TRADITIONAL_NAME>
N-[5-(cyclopropylamino)-7-(trifluoromethyl)-[1,2,4]triazolo[1,5-a]pyridin-2-yl]nicotinamide

> <PUBCHEM_IUPAC_INCHI>
InChI=1S/C16H13F3N6O/c17-16(18,19)10-6-12(21-11-3-4-11)25-13(7-10)22-15(24-25)23-14(26)9-2-1-5-20-8-9/h1-2,5-8,11,21H,3-4H2,(H,23,24,26)

> <PUBCHEM_IUPAC_INCHIKEY>
XUKGFHHTSUKORV-UHFFFAOYSA-N

> <PUBCHEM_XLOGP3_AA>
2.6

> <PUBCHEM_EXACT_MASS>
362.11

> <PUBCHEM_MOLECULAR_FORMULA>
C16H13F3N6O

> <PUBCHEM_MOLECULAR_WEIGHT>
362.316

> <PUBCHEM_OPENEYE_CAN_SMILES>
C1CC1NC2=CC(=CC3=NC(=NN23)NC(=O)C4=CN=CC=C4)C(F)(F)F

> <PUBCHEM_OPENEYE_ISO_SMILES>
C1CC1NC2=CC(=CC3=NC(=NN23)NC(=O)C4=CN=CC=C4)C(F)(F)F

> <PUBCHEM_CACTVS_TPSA>
84.2

> <PUBCHEM_MONOISOTOPIC_WEIGHT>
362.11

> <PUBCHEM_TOTAL_CHARGE>
0

> <PUBCHEM_HEAVY_ATOM_COUNT>
26

> <PUBCHEM_ATOM_DEF_STEREO_COUNT>
0

> <PUBCHEM_ATOM_UDEF_STEREO_COUNT>
0

> <PUBCHEM_BOND_DEF_STEREO_COUNT>
0

> <PUBCHEM_BOND_UDEF_STEREO_COUNT>
0

> <PUBCHEM_ISOTOPIC_ATOM_COUNT>
0

> <PUBCHEM_COMPONENT_COUNT>
1

> <PUBCHEM_CACTVS_TAUTO_COUNT>
11

> <PUBCHEM_COORDINATE_TYPE>
1
5
255

> <PUBCHEM_BONDANNOTATIONS>
10  24  8
10  26  8
14  15  8
15  17  8
16  18  8
17  18  8
22  23  8
22  24  8
23  25  8
25  26  8
6  14  8
6  16  8
6  7  8
7  19  8
8  16  8
8  19  8

$$$$
25118862
  -OEChem-11021604552D

 38 40  0     0  0  0  0  0  0999 V2000
    3.9538    0.8976    0.0000 S   0  0  0  0  0  0  0  0  0  0  0  0
    3.6750   -0.8625    0.0000 S   0  0  0  0  0  0  0  0  0  0  0  0
    3.1448    1.4854    0.0000 O   0  0  0  0  0  0  0  0  0  0  0  0
    4.7628    0.3098    0.0000 O   0  0  0  0  0  0  0  0  0  0  0  0
    4.6783   -4.2550    0.0000 N   0  0  0  0  0  0  0  0  0  0  0  0
    4.5416    1.7066    0.0000 N   0  0  0  0  0  0  0  0  0  0  0  0
    2.8660   -4.4503    0.0000 N   0  0  0  0  0  0  0  0  0  0  0  0
    4.3159    4.3427    0.0000 N   0  0  0  0  0  0  0  0  0  0  0  0
    3.7320   -2.9503    0.0000 C   0  0  0  0  0  0  0  0  0  0  0  0
    2.8660   -2.4503    0.0000 C   0  0  0  0  0  0  0  0  0  0  0  0
    2.8660   -1.4503    0.0000 C   0  0  0  0  0  0  0  0  0  0  0  0
    3.7320   -3.9503    0.0000 C   0  0  0  0  0  0  0  0  0  0  0  0
    3.3660    0.0886    0.0000 C   0  0  0  0  0  0  0  0  0  0  0  0
    4.6783   -2.6455    0.0000 C   0  0  0  0  0  0  0  0  0  0  0  0
    5.2619   -3.4503    0.0000 C   0  0  0  0  0  0  0  0  0  0  0  0
    2.0570   -0.8625    0.0000 C   0  0  0  0  0  0  0  0  0  0  0  0
    2.3660    0.0886    0.0000 C   0  0  0  0  0  0  0  0  0  0  0  0
    2.0000   -2.9503    0.0000 C   0  0  0  0  0  0  0  0  0  0  0  0
    4.1349    2.6202    0.0000 C   0  0  0  0  0  0  0  0  0  0  0  0
    2.0000   -3.9503    0.0000 C   0  0  0  0  0  0  0  0  0  0  0  0
    6.2619   -3.4503    0.0000 C   0  0  0  0  0  0  0  0  0  0  0  0
    4.7226    3.4292    0.0000 C   0  0  0  0  0  0  0  0  0  0  0  0
    4.8709   -2.0562    0.0000 H   0  0  0  0  0  0  0  0  0  0  0  0
    4.8709   -4.8443    0.0000 H   0  0  0  0  0  0  0  0  0  0  0  0
    1.4674   -1.0541    0.0000 H   0  0  0  0  0  0  0  0  0  0  0  0
    2.0016    0.5902    0.0000 H   0  0  0  0  0  0  0  0  0  0  0  0
    1.4631   -2.6403    0.0000 H   0  0  0  0  0  0  0  0  0  0  0  0
    5.1582    1.6418    0.0000 H   0  0  0  0  0  0  0  0  0  0  0  0
    3.7042    3.0662    0.0000 H   0  0  0  0  0  0  0  0  0  0  0  0
    3.6209    2.2735    0.0000 H   0  0  0  0  0  0  0  0  0  0  0  0
    1.4631   -4.2603    0.0000 H   0  0  0  0  0  0  0  0  0  0  0  0
    5.1533    2.9832    0.0000 H   0  0  0  0  0  0  0  0  0  0  0  0
    5.2366    3.7759    0.0000 H   0  0  0  0  0  0  0  0  0  0  0  0
    6.2619   -4.0703    0.0000 H   0  0  0  0  0  0  0  0  0  0  0  0
    6.8819   -3.4503    0.0000 H   0  0  0  0  0  0  0  0  0  0  0  0
    6.2619   -2.8303    0.0000 H   0  0  0  0  0  0  0  0  0  0  0  0
    4.6803    4.8443    0.0000 H   0  0  0  0  0  0  0  0  0  0  0  0
    3.6993    4.4075    0.0000 H   0  0  0  0  0  0  0  0  0  0  0  0
  1  3  2  0  0  0  0
  1  4  2  0  0  0  0
  1  6  1  0  0  0  0
  1 13  1  0  0  0  0
  2 11  1  0  0  0  0
  2 13  1  0  0  0  0
  5 12  1  0  0  0  0
  5 15  1  0  0  0  0
  5 24  1  0  0  0  0
  6 19  1  0  0  0  0
  6 28  1  0  0  0  0
  7 12  2  0  0  0  0
  7 20  1  0  0  0  0
  8 22  1  0  0  0  0
  8 37  1  0  0  0  0
  8 38  1  0  0  0  0
  9 10  2  0  0  0  0
  9 12  1  0  0  0  0
  9 14  1  0  0  0  0
 10 11  1  0  0  0  0
 10 18  1  0  0  0  0
 11 16  2  0  0  0  0
 13 17  2  0  0  0  0
 14 15  2  0  0  0  0
 14 23  1  0  0  0  0
 15 21  1  0  0  0  0
 16 17  1  0  0  0  0
 16 25  1  0  0  0  0
 17 26  1  0  0  0  0
 18 20  2  0  0  0  0
 18 27  1  0  0  0  0
 19 22  1  0  0  0  0
 19 29  1  0  0  0  0
 19 30  1  0  0  0  0
 20 31  1  0  0  0  0
 21 34  1  0  0  0  0
 21 35  1  0  0  0  0
 21 36  1  0  0  0  0
 22 32  1  0  0  0  0
 22 33  1  0  0  0  0
M  END
> <PUBCHEM_COMPOUND_CID>
25118862

> <PUBCHEM_COMPOUND_CANONICALIZED>
1

> <PUBCHEM_CACTVS_COMPLEXITY>
482

> <PUBCHEM_CACTVS_HBOND_ACCEPTOR>
6

> <PUBCHEM_CACTVS_HBOND_DONOR>
3

> <PUBCHEM_CACTVS_ROTATABLE_BOND>
5

> <PUBCHEM_CACTVS_SUBSKEYS>
AAADceBzsABgAAAAAAAAAAAAAAAAAWJAAAAsAAAAAAAAAFgB/gAAHAQQQAAADAjBXwQ/sd7JkAqkAzZnZHDDgbmxCrBJ2bg4ZJiIaOLgmZGEIAhokALoyCcQgMAOgAAAAAAAAAAAAAAAAAAAAAAAAAAAAA==

> <PUBCHEM_IUPAC_OPENEYE_NAME>
N-(2-aminoethyl)-5-(2-methyl-1H-pyrrolo[2,3-b]pyridin-4-yl)thiophene-2-sulfonamide

> <PUBCHEM_IUPAC_CAS_NAME>
N-(2-aminoethyl)-5-(2-methyl-1H-pyrrolo[2,3-b]pyridin-4-yl)-2-thiophenesulfonamide

> <PUBCHEM_IUPAC_NAME>
N-(2-aminoethyl)-5-(2-methyl-1H-pyrrolo[2,3-b]pyridin-4-yl)thiophene-2-sulfonamide

> <PUBCHEM_IUPAC_SYSTEMATIC_NAME>
N-(2-azanylethyl)-5-(2-methyl-1H-pyrrolo[2,3-b]pyridin-4-yl)thiophene-2-sulfonamide

> <PUBCHEM_IUPAC_TRADITIONAL_NAME>
N-(2-aminoethyl)-5-(2-methyl-1H-pyrrolo[2,3-b]pyridin-4-yl)thiophene-2-sulfonamide

> <PUBCHEM_IUPAC_INCHI>
InChI=1S/C14H16N4O2S2/c1-9-8-11-10(4-6-16-14(11)18-9)12-2-3-13(21-12)22(19,20)17-7-5-15/h2-4,6,8,17H,5,7,15H2,1H3,(H,16,18)

> <PUBCHEM_IUPAC_INCHIKEY>
AETIDEIXYCAWOW-UHFFFAOYSA-N

> <PUBCHEM_XLOGP3_AA>
1.4

> <PUBCHEM_EXACT_MASS>
336.071

> <PUBCHEM_MOLECULAR_FORMULA>
C14H16N4O2S2

> <PUBCHEM_MOLECULAR_WEIGHT>
336.428

> <PUBCHEM_OPENEYE_CAN_SMILES>
CC1=CC2=C(C=CN=C2N1)C3=CC=C(S3)S(=O)(=O)NCCN

> <PUBCHEM_OPENEYE_ISO_SMILES>
CC1=CC2=C(C=CN=C2N1)C3=CC=C(S3)S(=O)(=O)NCCN

> <PUBCHEM_CACTVS_TPSA>
138

> <PUBCHEM_MONOISOTOPIC_WEIGHT>
336.071

> <PUBCHEM_TOTAL_CHARGE>
0

> <PUBCHEM_HEAVY_ATOM_COUNT>
22

> <PUBCHEM_ATOM_DEF_STEREO_COUNT>
0

> <PUBCHEM_ATOM_UDEF_STEREO_COUNT>
0

> <PUBCHEM_BOND_DEF_STEREO_COUNT>
0

> <PUBCHEM_BOND_UDEF_STEREO_COUNT>
0

> <PUBCHEM_ISOTOPIC_ATOM_COUNT>
0

> <PUBCHEM_COMPONENT_COUNT>
1

> <PUBCHEM_CACTVS_TAUTO_COUNT>
2

> <PUBCHEM_COORDINATE_TYPE>
1
5
255

> <PUBCHEM_BONDANNOTATIONS>
10  18  8
11  16  8
13  17  8
14  15  8
16  17  8
18  20  8
2  11  8
2  13  8
5  12  8
5  15  8
7  12  8
7  20  8
9  10  8
9  12  8
9  14  8

$$$$
5522952
  -OEChem-11021604552D

 37 40  0     0  0  0  0  0  0999 V2000
    4.6660   -3.5106    0.0000 O   0  0  0  0  0  0  0  0  0  0  0  0
    3.7667    2.0208    0.0000 O   0  0  0  0  0  0  0  0  0  0  0  0
    5.5442    2.0586    0.0000 O   0  0  0  0  0  0  0  0  0  0  0  0
    2.9180    0.5108    0.0000 O   0  0  0  0  0  0  0  0  0  0  0  0
    6.4501    0.5378    0.0000 N   0  0  0  0  0  0  0  0  0  0  0  0
    5.5321   -1.0106    0.0000 C   0  0  0  0  0  0  0  0  0  0  0  0
    4.6660   -0.5106    0.0000 C   0  0  0  0  0  0  0  0  0  0  0  0
    3.8000   -1.0106    0.0000 C   0  0  0  0  0  0  0  0  0  0  0  0
    5.5321   -2.0106    0.0000 C   0  0  0  0  0  0  0  0  0  0  0  0
    6.4421   -0.5038    0.0000 C   0  0  0  0  0  0  0  0  0  0  0  0
    3.8000   -2.0106    0.0000 C   0  0  0  0  0  0  0  0  0  0  0  0
    4.6500    0.5309    0.0000 C   0  0  0  0  0  0  0  0  0  0  0  0
    4.6660   -2.5106    0.0000 C   0  0  0  0  0  0  0  0  0  0  0  0
    5.5480    1.0586    0.0000 C   0  0  0  0  0  0  0  0  0  0  0  0
    6.3903   -2.5076    0.0000 C   0  0  0  0  0  0  0  0  0  0  0  0
    7.2814   -1.0320    0.0000 C   0  0  0  0  0  0  0  0  0  0  0  0
    2.9061   -0.4760    0.0000 C   0  0  0  0  0  0  0  0  0  0  0  0
    2.9061   -2.5453    0.0000 C   0  0  0  0  0  0  0  0  0  0  0  0
    7.2558   -2.0234    0.0000 C   0  0  0  0  0  0  0  0  0  0  0  0
    3.7782    1.0208    0.0000 C   0  0  0  0  0  0  0  0  0  0  0  0
    2.0000   -0.9898    0.0000 C   0  0  0  0  0  0  0  0  0  0  0  0
    2.0000   -2.0314    0.0000 C   0  0  0  0  0  0  0  0  0  0  0  0
    2.8949    2.5107    0.0000 C   0  0  0  0  0  0  0  0  0  0  0  0
    2.8834    3.5106    0.0000 C   0  0  0  0  0  0  0  0  0  0  0  0
    6.9882    0.8457    0.0000 H   0  0  0  0  0  0  0  0  0  0  0  0
    6.3857   -3.1276    0.0000 H   0  0  0  0  0  0  0  0  0  0  0  0
    7.8280   -0.7394    0.0000 H   0  0  0  0  0  0  0  0  0  0  0  0
    2.9132    0.1440    0.0000 H   0  0  0  0  0  0  0  0  0  0  0  0
    2.9132   -3.1653    0.0000 H   0  0  0  0  0  0  0  0  0  0  0  0
    7.7865   -2.3439    0.0000 H   0  0  0  0  0  0  0  0  0  0  0  0
    1.4643   -0.6778    0.0000 H   0  0  0  0  0  0  0  0  0  0  0  0
    1.4643   -2.3435    0.0000 H   0  0  0  0  0  0  0  0  0  0  0  0
    2.2831    2.6113    0.0000 H   0  0  0  0  0  0  0  0  0  0  0  0
    2.6896    1.9257    0.0000 H   0  0  0  0  0  0  0  0  0  0  0  0
    3.5033    3.5178    0.0000 H   0  0  0  0  0  0  0  0  0  0  0  0
    2.8762    4.1306    0.0000 H   0  0  0  0  0  0  0  0  0  0  0  0
    2.2634    3.5035    0.0000 H   0  0  0  0  0  0  0  0  0  0  0  0
  1 13  2  0  0  0  0
  2 20  1  0  0  0  0
  2 23  1  0  0  0  0
  3 14  2  0  0  0  0
  4 20  2  0  0  0  0
  5 10  1  0  0  0  0
  5 14  1  0  0  0  0
  5 25  1  0  0  0  0
  6  7  1  0  0  0  0
  6  9  2  0  0  0  0
  6 10  1  0  0  0  0
  7  8  1  0  0  0  0
  7 12  2  0  0  0  0
  8 11  1  0  0  0  0
  8 17  2  0  0  0  0
  9 13  1  0  0  0  0
  9 15  1  0  0  0  0
 10 16  2  0  0  0  0
 11 13  1  0  0  0  0
 11 18  2  0  0  0  0
 12 14  1  0  0  0  0
 12 20  1  0  0  0  0
 15 19  2  0  0  0  0
 15 26  1  0  0  0  0
 16 19  1  0  0  0  0
 16 27  1  0  0  0  0
 17 21  1  0  0  0  0
 17 28  1  0  0  0  0
 18 22  1  0  0  0  0
 18 29  1  0  0  0  0
 19 30  1  0  0  0  0
 21 22  2  0  0  0  0
 21 31  1  0  0  0  0
 22 32  1  0  0  0  0
 23 24  1  0  0  0  0
 23 33  1  0  0  0  0
 23 34  1  0  0  0  0
 24 35  1  0  0  0  0
 24 36  1  0  0  0  0
 24 37  1  0  0  0  0
M  END
> <PUBCHEM_COMPOUND_CID>
5522952

> <PUBCHEM_COMPOUND_CANONICALIZED>
1

> <PUBCHEM_CACTVS_COMPLEXITY>
623

> <PUBCHEM_CACTVS_HBOND_ACCEPTOR>
4

> <PUBCHEM_CACTVS_HBOND_DONOR>
1

> <PUBCHEM_CACTVS_ROTATABLE_BOND>
3

> <PUBCHEM_CACTVS_SUBSKEYS>
AAADccB6OAAAAAAAAAAAAAAAAAAAAAAAAAAwYMEAAAAAAADBQAAAHgAQAAAADAyhmAIyyILABACIAqXSWACCAAAlAgAIiAEAZMgIJD7ItZGGMQhitADI6YcciMCOgAAAQAASAACAAASAACQAAAAAAAAAAA==

> <PUBCHEM_IUPAC_INCHI>
InChI=1S/C19H13NO4/c1-2-24-19(23)16-15-10-6-3-4-7-11(10)17(21)12-8-5-9-13(14(12)15)20-18(16)22/h3-9H,2H2,1H3,(H,20,22)

> <PUBCHEM_IUPAC_INCHIKEY>
UFJGFNHRMPMALC-UHFFFAOYSA-N

> <PUBCHEM_XLOGP3_AA>
2.5

> <PUBCHEM_EXACT_MASS>
319.084

> <PUBCHEM_MOLECULAR_FORMULA>
C19H13NO4

> <PUBCHEM_MOLECULAR_WEIGHT>
319.316

> <PUBCHEM_OPENEYE_CAN_SMILES>
CCOC(=O)C1=C2C3=CC=CC=C3C(=O)C4=C2C(=CC=C4)NC1=O

> <PUBCHEM_OPENEYE_ISO_SMILES>
CCOC(=O)C1=C2C3=CC=CC=C3C(=O)C4=C2C(=CC=C4)NC1=O

> <PUBCHEM_CACTVS_TPSA>
72.5

> <PUBCHEM_MONOISOTOPIC_WEIGHT>
319.084

> <PUBCHEM_TOTAL_CHARGE>
0

> <PUBCHEM_HEAVY_ATOM_COUNT>
24

> <PUBCHEM_ATOM_DEF_STEREO_COUNT>
0

> <PUBCHEM_ATOM_UDEF_STEREO_COUNT>
0

> <PUBCHEM_BOND_DEF_STEREO_COUNT>
0

> <PUBCHEM_BOND_UDEF_STEREO_COUNT>
0

> <PUBCHEM_ISOTOPIC_ATOM_COUNT>
0

> <PUBCHEM_COMPONENT_COUNT>
1

> <PUBCHEM_CACTVS_TAUTO_COUNT>
5

> <PUBCHEM_COORDINATE_TYPE>
1
5
255

> <PUBCHEM_BONDANNOTATIONS>
10  16  8
11  18  8
12  14  8
15  19  8
16  19  8
17  21  8
18  22  8
21  22  8
5  10  8
5  14  8
6  10  8
6  7  8
6  9  8
7  12  8
8  11  8
8  17  8
9  15  8

$$$$
126565
  -OEChem-11021604552D

 54 61  0     1  0  0  0  0  0999 V2000
    4.6943    2.8707    0.0000 O   0  0  0  0  0  0  0  0  0  0  0  0
    2.4891   -0.8312    0.0000 O   0  0  0  0  0  0  0  0  0  0  0  0
    0.6620    0.3444    0.0000 O   0  0  0  0  0  0  0  0  0  0  0  0
   10.4084   -0.0099    0.0000 O   0  0  0  0  0  0  0  0  0  0  0  0
    5.5826   -0.4438    0.0000 N   0  0  0  0  0  0  0  0  0  0  0  0
    6.5826    1.2882    0.0000 N   0  0  0  0  0  0  0  0  0  0  0  0
    9.7714   -1.7076    0.0000 N   0  0  0  0  0  0  0  0  0  0  0  0
    4.2166    0.9222    0.0000 C   0  0  2  0  0  0  0  0  0  0  0  0
    2.3846    0.1634    0.0000 C   0  0  1  0  0  0  0  0  0  0  0  0
    3.9577    1.8881    0.0000 C   0  0  1  0  0  0  0  0  0  0  0  0
    2.1258    1.1293    0.0000 C   0  0  0  0  0  0  0  0  0  0  0  0
    6.5826   -0.4438    0.0000 C   0  0  0  0  0  0  0  0  0  0  0  0
    7.0826    0.4222    0.0000 C   0  0  0  0  0  0  0  0  0  0  0  0
    7.0894   -1.3538    0.0000 C   0  0  0  0  0  0  0  0  0  0  0  0
    4.4754   -0.0437    0.0000 C   0  0  0  0  0  0  0  0  0  0  0  0
    1.4710   -0.2434    0.0000 C   0  0  0  0  0  0  0  0  0  0  0  0
    8.1241    0.4382    0.0000 C   0  0  0  0  0  0  0  0  0  0  0  0
    5.4366   -1.4269    0.0000 C   0  0  0  0  0  0  0  0  0  0  0  0
    7.3609    1.9061    0.0000 C   0  0  0  0  0  0  0  0  0  0  0  0
    6.2873   -1.9406    0.0000 C   0  0  0  0  0  0  0  0  0  0  0  0
    8.1310   -1.3619    0.0000 C   0  0  0  0  0  0  0  0  0  0  0  0
    8.6518   -0.4598    0.0000 C   0  0  0  0  0  0  0  0  0  0  0  0
    8.2312    1.4263    0.0000 C   0  0  0  0  0  0  0  0  0  0  0  0
    8.8259   -2.1296    0.0000 C   0  0  0  0  0  0  0  0  0  0  0  0
    4.5225   -1.9127    0.0000 C   0  0  0  0  0  0  0  0  0  0  0  0
    9.6641   -0.6777    0.0000 C   0  0  0  0  0  0  0  0  0  0  0  0
    7.3246    2.9407    0.0000 C   0  0  0  0  0  0  0  0  0  0  0  0
    6.2829   -2.9758    0.0000 C   0  0  0  0  0  0  0  0  0  0  0  0
    9.1255    1.9477    0.0000 C   0  0  0  0  0  0  0  0  0  0  0  0
    4.4941   -2.9475    0.0000 C   0  0  0  0  0  0  0  0  0  0  0  0
    5.3803   -3.4826    0.0000 C   0  0  0  0  0  0  0  0  0  0  0  0
    8.2066    3.4826    0.0000 C   0  0  0  0  0  0  0  0  0  0  0  0
    9.1131    2.9828    0.0000 C   0  0  0  0  0  0  0  0  0  0  0  0
    3.7377    2.7091    0.0000 H   0  0  0  0  0  0  0  0  0  0  0  0
    1.5345    0.9428    0.0000 H   0  0  0  0  0  0  0  0  0  0  0  0
    1.9137    1.7119    0.0000 H   0  0  0  0  0  0  0  0  0  0  0  0
    5.0742    0.1167    0.0000 H   0  0  0  0  0  0  0  0  0  0  0  0
    4.6358   -0.6426    0.0000 H   0  0  0  0  0  0  0  0  0  0  0  0
    3.8765   -0.2042    0.0000 H   0  0  0  0  0  0  0  0  0  0  0  0
    1.8178   -0.7574    0.0000 H   0  0  0  0  0  0  0  0  0  0  0  0
    1.0251   -0.6741    0.0000 H   0  0  0  0  0  0  0  0  0  0  0  0
    1.9875   -1.1956    0.0000 H   0  0  0  0  0  0  0  0  0  0  0  0
    9.1366   -2.6661    0.0000 H   0  0  0  0  0  0  0  0  0  0  0  0
    8.3250   -2.4950    0.0000 H   0  0  0  0  0  0  0  0  0  0  0  0
    3.9955   -1.5861    0.0000 H   0  0  0  0  0  0  0  0  0  0  0  0
    6.7782    3.2338    0.0000 H   0  0  0  0  0  0  0  0  0  0  0  0
    6.8173   -3.2902    0.0000 H   0  0  0  0  0  0  0  0  0  0  0  0
    9.6649    1.6421    0.0000 H   0  0  0  0  0  0  0  0  0  0  0  0
   10.3084   -2.0176    0.0000 H   0  0  0  0  0  0  0  0  0  0  0  0
    0.0956    0.0922    0.0000 H   0  0  0  0  0  0  0  0  0  0  0  0
    3.9500   -3.2448    0.0000 H   0  0  0  0  0  0  0  0  0  0  0  0
    5.3704   -4.1026    0.0000 H   0  0  0  0  0  0  0  0  0  0  0  0
    8.1920    4.1025    0.0000 H   0  0  0  0  0  0  0  0  0  0  0  0
    9.6451    3.3013    0.0000 H   0  0  0  0  0  0  0  0  0  0  0  0
  1  8  1  0  0  0  0
  1 10  1  0  0  0  0
  9  2  1  6  0  0  0
  2 42  1  0  0  0  0
  3 16  1  0  0  0  0
  3 50  1  0  0  0  0
  4 26  2  0  0  0  0
  5  8  1  0  0  0  0
  5 12  1  0  0  0  0
  5 18  1  0  0  0  0
  6 10  1  0  0  0  0
  6 13  1  0  0  0  0
  6 19  1  0  0  0  0
  7 24  1  0  0  0  0
  7 26  1  0  0  0  0
  7 49  1  0  0  0  0
  8  9  1  0  0  0  0
  8 15  1  1  0  0  0
  9 11  1  0  0  0  0
  9 16  1  0  0  0  0
 10 11  1  0  0  0  0
 10 34  1  6  0  0  0
 11 35  1  0  0  0  0
 11 36  1  0  0  0  0
 12 13  2  0  0  0  0
 12 14  1  0  0  0  0
 13 17  1  0  0  0  0
 14 20  1  0  0  0  0
 14 21  2  0  0  0  0
 15 37  1  0  0  0  0
 15 38  1  0  0  0  0
 15 39  1  0  0  0  0
 16 40  1  0  0  0  0
 16 41  1  0  0  0  0
 17 22  2  0  0  0  0
 17 23  1  0  0  0  0
 18 20  1  0  0  0  0
 18 25  2  0  0  0  0
 19 23  1  0  0  0  0
 19 27  2  0  0  0  0
 20 28  2  0  0  0  0
 21 22  1  0  0  0  0
 21 24  1  0  0  0  0
 22 26  1  0  0  0  0
 23 29  2  0  0  0  0
 24 43  1  0  0  0  0
 24 44  1  0  0  0  0
 25 30  1  0  0  0  0
 25 45  1  0  0  0  0
 27 32  1  0  0  0  0
 27 46  1  0  0  0  0
 28 31  1  0  0  0  0
 28 47  1  0  0  0  0
 29 33  1  0  0  0  0
 29 48  1  0  0  0  0
 30 31  2  0  0  0  0
 30 51  1  0  0  0  0
 31 52  1  0  0  0  0
 32 33  2  0  0  0  0
 32 53  1  0  0  0  0
 33 54  1  0  0  0  0
M  END
> <PUBCHEM_COMPOUND_CID>
126565

> <PUBCHEM_COMPOUND_CANONICALIZED>
1

> <PUBCHEM_CACTVS_COMPLEXITY>
886

> <PUBCHEM_CACTVS_HBOND_ACCEPTOR>
4

> <PUBCHEM_CACTVS_HBOND_DONOR>
3

> <PUBCHEM_CACTVS_ROTATABLE_BOND>
1

> <PUBCHEM_CACTVS_SUBSKEYS>
AAADceB7OAAAAAAAAAAAAAAAAAAAAWLFiQAwYMAABYAWAFix/gAAHgAQCAAADEzhngYywPPMFgCoAyVyVACCgCQlEiAI2KE4dNgLcPLAlZGeYQhnhgDbyQf8icCeyAACQAASACCQAASAACQAQAAAAAAAAA==

> <PUBCHEM_IUPAC_INCHI>
InChI=1S/C26H21N3O4/c1-25-26(32,12-30)10-18(33-25)28-16-8-4-2-6-13(16)20-21-15(11-27-24(21)31)19-14-7-3-5-9-17(14)29(25)23(19)22(20)28/h2-9,18,30,32H,10-12H2,1H3,(H,27,31)/t18-,25+,26+/m1/s1

> <PUBCHEM_IUPAC_INCHIKEY>
UIARLYUEJFELEN-LROUJFHJSA-N

> <PUBCHEM_XLOGP3_AA>
2.2

> <PUBCHEM_EXACT_MASS>
439.153

> <PUBCHEM_MOLECULAR_FORMULA>
C26H21N3O4

> <PUBCHEM_MOLECULAR_WEIGHT>
439.471

> <PUBCHEM_OPENEYE_CAN_SMILES>
CC12C(CC(O1)N3C4=CC=CC=C4C5=C6C(=C7C8=CC=CC=C8N2C7=C53)CNC6=O)(CO)O

> <PUBCHEM_OPENEYE_ISO_SMILES>
C[C@@]12[C@](C[C@@H](O1)N3C4=CC=CC=C4C5=C6C(=C7C8=CC=CC=C8N2C7=C53)CNC6=O)(CO)O

> <PUBCHEM_CACTVS_TPSA>
88.6

> <PUBCHEM_MONOISOTOPIC_WEIGHT>
439.153

> <PUBCHEM_TOTAL_CHARGE>
0

> <PUBCHEM_HEAVY_ATOM_COUNT>
33

> <PUBCHEM_ATOM_DEF_STEREO_COUNT>
3

> <PUBCHEM_ATOM_UDEF_STEREO_COUNT>
0

> <PUBCHEM_BOND_DEF_STEREO_COUNT>
0

> <PUBCHEM_BOND_UDEF_STEREO_COUNT>
0

> <PUBCHEM_ISOTOPIC_ATOM_COUNT>
0

> <PUBCHEM_COMPONENT_COUNT>
1

> <PUBCHEM_CACTVS_TAUTO_COUNT>
2

> <PUBCHEM_COORDINATE_TYPE>
1
5
255

> <PUBCHEM_BONDANNOTATIONS>
10  34  6
12  13  8
12  14  8
13  17  8
14  20  8
14  21  8
17  22  8
17  23  8
18  20  8
18  25  8
19  23  8
19  27  8
9  2  6
20  28  8
21  22  8
23  29  8
25  30  8
27  32  8
28  31  8
29  33  8
30  31  8
32  33  8
5  12  8
5  18  8
6  13  8
6  19  8
8  15  5

$$$$
1602082
  -OEChem-11021604552D

 43 47  0     0  0  0  0  0  0999 V2000
    4.6660   -3.7656    0.0000 O   0  0  0  0  0  0  0  0  0  0  0  0
    5.5442    1.8036    0.0000 O   0  0  0  0  0  0  0  0  0  0  0  0
    2.9180    0.2558    0.0000 O   0  0  0  0  0  0  0  0  0  0  0  0
    6.4501    0.2828    0.0000 N   0  0  0  0  0  0  0  0  0  0  0  0
    5.5321   -1.2656    0.0000 C   0  0  0  0  0  0  0  0  0  0  0  0
    4.6660   -0.7656    0.0000 C   0  0  0  0  0  0  0  0  0  0  0  0
    6.4421   -0.7588    0.0000 C   0  0  0  0  0  0  0  0  0  0  0  0
    5.5321   -2.2656    0.0000 C   0  0  0  0  0  0  0  0  0  0  0  0
    3.8000   -1.2656    0.0000 C   0  0  0  0  0  0  0  0  0  0  0  0
    4.6500    0.2759    0.0000 C   0  0  0  0  0  0  0  0  0  0  0  0
    3.8000   -2.2656    0.0000 C   0  0  0  0  0  0  0  0  0  0  0  0
    4.6660   -2.7656    0.0000 C   0  0  0  0  0  0  0  0  0  0  0  0
    5.5480    0.8036    0.0000 C   0  0  0  0  0  0  0  0  0  0  0  0
    7.2814   -1.2870    0.0000 C   0  0  0  0  0  0  0  0  0  0  0  0
    6.3903   -2.7626    0.0000 C   0  0  0  0  0  0  0  0  0  0  0  0
    2.9061   -0.7310    0.0000 C   0  0  0  0  0  0  0  0  0  0  0  0
    7.2558   -2.2784    0.0000 C   0  0  0  0  0  0  0  0  0  0  0  0
    3.7782    0.7658    0.0000 C   0  0  0  0  0  0  0  0  0  0  0  0
    2.9061   -2.8003    0.0000 C   0  0  0  0  0  0  0  0  0  0  0  0
    7.3180    0.7795    0.0000 C   0  0  0  0  0  0  0  0  0  0  0  0
    2.0000   -1.2448    0.0000 C   0  0  0  0  0  0  0  0  0  0  0  0
    2.0000   -2.2864    0.0000 C   0  0  0  0  0  0  0  0  0  0  0  0
    3.7667    1.7658    0.0000 C   0  0  0  0  0  0  0  0  0  0  0  0
    4.6268    2.2757    0.0000 C   0  0  0  0  0  0  0  0  0  0  0  0
    2.8949    2.2557    0.0000 C   0  0  0  0  0  0  0  0  0  0  0  0
    4.6153    3.2757    0.0000 C   0  0  0  0  0  0  0  0  0  0  0  0
    2.8834    3.2556    0.0000 C   0  0  0  0  0  0  0  0  0  0  0  0
    3.7435    3.7656    0.0000 C   0  0  0  0  0  0  0  0  0  0  0  0
    7.8280   -0.9943    0.0000 H   0  0  0  0  0  0  0  0  0  0  0  0
    6.3857   -3.3825    0.0000 H   0  0  0  0  0  0  0  0  0  0  0  0
    2.9132   -0.1110    0.0000 H   0  0  0  0  0  0  0  0  0  0  0  0
    7.7865   -2.5989    0.0000 H   0  0  0  0  0  0  0  0  0  0  0  0
    2.9132   -3.4202    0.0000 H   0  0  0  0  0  0  0  0  0  0  0  0
    7.6260    0.2413    0.0000 H   0  0  0  0  0  0  0  0  0  0  0  0
    7.8562    1.0874    0.0000 H   0  0  0  0  0  0  0  0  0  0  0  0
    7.0101    1.3176    0.0000 H   0  0  0  0  0  0  0  0  0  0  0  0
    1.4643   -0.9327    0.0000 H   0  0  0  0  0  0  0  0  0  0  0  0
    1.4643   -2.5985    0.0000 H   0  0  0  0  0  0  0  0  0  0  0  0
    5.1673    1.9720    0.0000 H   0  0  0  0  0  0  0  0  0  0  0  0
    2.3616    1.9395    0.0000 H   0  0  0  0  0  0  0  0  0  0  0  0
    5.1486    3.5919    0.0000 H   0  0  0  0  0  0  0  0  0  0  0  0
    2.3429    3.5594    0.0000 H   0  0  0  0  0  0  0  0  0  0  0  0
    3.7364    4.3856    0.0000 H   0  0  0  0  0  0  0  0  0  0  0  0
  1 12  2  0  0  0  0
  2 13  2  0  0  0  0
  3 18  2  0  0  0  0
  4  7  1  0  0  0  0
  4 13  1  0  0  0  0
  4 20  1  0  0  0  0
  5  6  1  0  0  0  0
  5  7  1  0  0  0  0
  5  8  2  0  0  0  0
  6  9  1  0  0  0  0
  6 10  2  0  0  0  0
  7 14  2  0  0  0  0
  8 12  1  0  0  0  0
  8 15  1  0  0  0  0
  9 11  1  0  0  0  0
  9 16  2  0  0  0  0
 10 13  1  0  0  0  0
 10 18  1  0  0  0  0
 11 12  1  0  0  0  0
 11 19  2  0  0  0  0
 14 17  1  0  0  0  0
 14 29  1  0  0  0  0
 15 17  2  0  0  0  0
 15 30  1  0  0  0  0
 16 21  1  0  0  0  0
 16 31  1  0  0  0  0
 17 32  1  0  0  0  0
 18 23  1  0  0  0  0
 19 22  1  0  0  0  0
 19 33  1  0  0  0  0
 20 34  1  0  0  0  0
 20 35  1  0  0  0  0
 20 36  1  0  0  0  0
 21 22  2  0  0  0  0
 21 37  1  0  0  0  0
 22 38  1  0  0  0  0
 23 24  2  0  0  0  0
 23 25  1  0  0  0  0
 24 26  1  0  0  0  0
 24 39  1  0  0  0  0
 25 27  2  0  0  0  0
 25 40  1  0  0  0  0
 26 28  2  0  0  0  0
 26 41  1  0  0  0  0
 27 28  1  0  0  0  0
 27 42  1  0  0  0  0
 28 43  1  0  0  0  0
M  END
> <PUBCHEM_COMPOUND_CID>
1602082

> <PUBCHEM_COMPOUND_CANONICALIZED>
1

> <PUBCHEM_CACTVS_COMPLEXITY>
732

> <PUBCHEM_CACTVS_HBOND_ACCEPTOR>
3

> <PUBCHEM_CACTVS_HBOND_DONOR>
0

> <PUBCHEM_CACTVS_ROTATABLE_BOND>
2

> <PUBCHEM_CACTVS_SUBSKEYS>
AAADccB6MAAAAAAAAAAAAAAAAAAAAAAAAAAwYMGCAAAAAADBUAAAHgAAAAAADAyBmAQywIMAAACIAqVSUACCAAAlAgAIiAEIZMgIIDrIlZGEIQhghgDIyYcciMCOgAAAQAASAACAAASAACQAAAAAAAAAAA==

> <PUBCHEM_IUPAC_INCHI>
InChI=1S/C24H15NO3/c1-25-18-13-7-12-17-19(18)20(15-10-5-6-11-16(15)23(17)27)21(24(25)28)22(26)14-8-3-2-4-9-14/h2-13H,1H3

> <PUBCHEM_IUPAC_INCHIKEY>
ZWGSMJQVTOURMR-UHFFFAOYSA-N

> <PUBCHEM_XLOGP3_AA>
3.8

> <PUBCHEM_EXACT_MASS>
365.105

> <PUBCHEM_MOLECULAR_FORMULA>
C24H15NO3

> <PUBCHEM_MOLECULAR_WEIGHT>
365.388

> <PUBCHEM_OPENEYE_CAN_SMILES>
CN1C2=CC=CC3=C2C(=C(C1=O)C(=O)C4=CC=CC=C4)C5=CC=CC=C5C3=O

> <PUBCHEM_OPENEYE_ISO_SMILES>
CN1C2=CC=CC3=C2C(=C(C1=O)C(=O)C4=CC=CC=C4)C5=CC=CC=C5C3=O

> <PUBCHEM_CACTVS_TPSA>
54.4

> <PUBCHEM_MONOISOTOPIC_WEIGHT>
365.105

> <PUBCHEM_TOTAL_CHARGE>
0

> <PUBCHEM_HEAVY_ATOM_COUNT>
28

> <PUBCHEM_ATOM_DEF_STEREO_COUNT>
0

> <PUBCHEM_ATOM_UDEF_STEREO_COUNT>
0

> <PUBCHEM_BOND_DEF_STEREO_COUNT>
0

> <PUBCHEM_BOND_UDEF_STEREO_COUNT>
0

> <PUBCHEM_ISOTOPIC_ATOM_COUNT>
0

> <PUBCHEM_COMPONENT_COUNT>
1

> <PUBCHEM_CACTVS_TAUTO_COUNT>
1

> <PUBCHEM_COORDINATE_TYPE>
1
5
255

> <PUBCHEM_BONDANNOTATIONS>
10  13  8
11  19  8
14  17  8
15  17  8
16  21  8
19  22  8
21  22  8
23  24  8
23  25  8
24  26  8
25  27  8
26  28  8
27  28  8
4  13  8
4  7  8
5  6  8
5  7  8
5  8  8
6  10  8
7  14  8
8  15  8
9  11  8
9  16  8

$$$$
793884
  -OEChem-11021604552D

 36 39  0     0  0  0  0  0  0999 V2000
    4.6660   -2.7846    0.0000 O   0  0  0  0  0  0  0  0  0  0  0  0
    5.5442    2.7846    0.0000 O   0  0  0  0  0  0  0  0  0  0  0  0
    6.4501    1.2638    0.0000 N   0  0  0  0  0  0  0  0  0  0  0  0
    3.7782    1.7468    0.0000 N   0  0  0  0  0  0  0  0  0  0  0  0
    5.5321   -0.2846    0.0000 C   0  0  0  0  0  0  0  0  0  0  0  0
    4.6660    0.2154    0.0000 C   0  0  0  0  0  0  0  0  0  0  0  0
    6.4421    0.2222    0.0000 C   0  0  0  0  0  0  0  0  0  0  0  0
    5.5321   -1.2846    0.0000 C   0  0  0  0  0  0  0  0  0  0  0  0
    3.8000   -0.2846    0.0000 C   0  0  0  0  0  0  0  0  0  0  0  0
    4.6500    1.2569    0.0000 C   0  0  0  0  0  0  0  0  0  0  0  0
    3.8000   -1.2846    0.0000 C   0  0  0  0  0  0  0  0  0  0  0  0
    4.6660   -1.7846    0.0000 C   0  0  0  0  0  0  0  0  0  0  0  0
    5.5480    1.7846    0.0000 C   0  0  0  0  0  0  0  0  0  0  0  0
    7.2814   -0.3060    0.0000 C   0  0  0  0  0  0  0  0  0  0  0  0
    6.3903   -1.7816    0.0000 C   0  0  0  0  0  0  0  0  0  0  0  0
    2.9061    0.2500    0.0000 C   0  0  0  0  0  0  0  0  0  0  0  0
    7.2558   -1.2974    0.0000 C   0  0  0  0  0  0  0  0  0  0  0  0
    2.9061   -1.8193    0.0000 C   0  0  0  0  0  0  0  0  0  0  0  0
    7.3180    1.7605    0.0000 C   0  0  0  0  0  0  0  0  0  0  0  0
    2.0000   -0.2638    0.0000 C   0  0  0  0  0  0  0  0  0  0  0  0
    2.0000   -1.3054    0.0000 C   0  0  0  0  0  0  0  0  0  0  0  0
    3.7667    2.7468    0.0000 C   0  0  0  0  0  0  0  0  0  0  0  0
    7.8280   -0.0133    0.0000 H   0  0  0  0  0  0  0  0  0  0  0  0
    6.3857   -2.4015    0.0000 H   0  0  0  0  0  0  0  0  0  0  0  0
    2.9132    0.8700    0.0000 H   0  0  0  0  0  0  0  0  0  0  0  0
    7.7865   -1.6179    0.0000 H   0  0  0  0  0  0  0  0  0  0  0  0
    2.9132   -2.4392    0.0000 H   0  0  0  0  0  0  0  0  0  0  0  0
    7.6260    1.2224    0.0000 H   0  0  0  0  0  0  0  0  0  0  0  0
    7.8562    2.0684    0.0000 H   0  0  0  0  0  0  0  0  0  0  0  0
    7.0101    2.2986    0.0000 H   0  0  0  0  0  0  0  0  0  0  0  0
    3.2449    1.4306    0.0000 H   0  0  0  0  0  0  0  0  0  0  0  0
    1.4643    0.0483    0.0000 H   0  0  0  0  0  0  0  0  0  0  0  0
    1.4643   -1.6175    0.0000 H   0  0  0  0  0  0  0  0  0  0  0  0
    4.3866    2.7539    0.0000 H   0  0  0  0  0  0  0  0  0  0  0  0
    3.7595    3.3667    0.0000 H   0  0  0  0  0  0  0  0  0  0  0  0
    3.1467    2.7396    0.0000 H   0  0  0  0  0  0  0  0  0  0  0  0
  1 12  2  0  0  0  0
  2 13  2  0  0  0  0
  3  7  1  0  0  0  0
  3 13  1  0  0  0  0
  3 19  1  0  0  0  0
  4 10  1  0  0  0  0
  4 22  1  0  0  0  0
  4 31  1  0  0  0  0
  5  6  1  0  0  0  0
  5  7  1  0  0  0  0
  5  8  2  0  0  0  0
  6  9  1  0  0  0  0
  6 10  2  0  0  0  0
  7 14  2  0  0  0  0
  8 12  1  0  0  0  0
  8 15  1  0  0  0  0
  9 11  1  0  0  0  0
  9 16  2  0  0  0  0
 10 13  1  0  0  0  0
 11 12  1  0  0  0  0
 11 18  2  0  0  0  0
 14 17  1  0  0  0  0
 14 23  1  0  0  0  0
 15 17  2  0  0  0  0
 15 24  1  0  0  0  0
 16 20  1  0  0  0  0
 16 25  1  0  0  0  0
 17 26  1  0  0  0  0
 18 21  1  0  0  0  0
 18 27  1  0  0  0  0
 19 28  1  0  0  0  0
 19 29  1  0  0  0  0
 19 30  1  0  0  0  0
 20 21  2  0  0  0  0
 20 32  1  0  0  0  0
 21 33  1  0  0  0  0
 22 34  1  0  0  0  0
 22 35  1  0  0  0  0
 22 36  1  0  0  0  0
M  END
> <PUBCHEM_COMPOUND_CID>
793884

> <PUBCHEM_COMPOUND_CANONICALIZED>
1

> <PUBCHEM_CACTVS_COMPLEXITY>
553

> <PUBCHEM_CACTVS_HBOND_ACCEPTOR>
3

> <PUBCHEM_CACTVS_HBOND_DONOR>
1

> <PUBCHEM_CACTVS_ROTATABLE_BOND>
1

> <PUBCHEM_CACTVS_SUBSKEYS>
AAADccB7MAAAAAAAAAAAAAAAAAAAAAAAAAAwYMEAAAAAAADBQAAAHgAQAAAADAyBmAQywIPAAACIAqVSUACCAAAlAgAIiIGIZMgIYDLAlbGUIQhghgDIyYcciMCOgAAAQAASAACAAASAACQAAAAAAAAAAA==

> <PUBCHEM_IUPAC_INCHI>
InChI=1S/C18H14N2O2/c1-19-16-15-10-6-3-4-7-11(10)17(21)12-8-5-9-13(14(12)15)20(2)18(16)22/h3-9,19H,1-2H3

> <PUBCHEM_IUPAC_INCHIKEY>
DTIGPJBXPGIKMS-UHFFFAOYSA-N

> <PUBCHEM_XLOGP3_AA>
2.4

> <PUBCHEM_EXACT_MASS>
290.106

> <PUBCHEM_MOLECULAR_FORMULA>
C18H14N2O2

> <PUBCHEM_MOLECULAR_WEIGHT>
290.322

> <PUBCHEM_OPENEYE_CAN_SMILES>
CNC1=C2C3=CC=CC=C3C(=O)C4=C2C(=CC=C4)N(C1=O)C

> <PUBCHEM_OPENEYE_ISO_SMILES>
CNC1=C2C3=CC=CC=C3C(=O)C4=C2C(=CC=C4)N(C1=O)C

> <PUBCHEM_CACTVS_TPSA>
49.4

> <PUBCHEM_MONOISOTOPIC_WEIGHT>
290.106

> <PUBCHEM_TOTAL_CHARGE>
0

> <PUBCHEM_HEAVY_ATOM_COUNT>
22

> <PUBCHEM_ATOM_DEF_STEREO_COUNT>
0

> <PUBCHEM_ATOM_UDEF_STEREO_COUNT>
0

> <PUBCHEM_BOND_DEF_STEREO_COUNT>
0

> <PUBCHEM_BOND_UDEF_STEREO_COUNT>
0

> <PUBCHEM_ISOTOPIC_ATOM_COUNT>
0

> <PUBCHEM_COMPONENT_COUNT>
1

> <PUBCHEM_CACTVS_TAUTO_COUNT>
2

> <PUBCHEM_COORDINATE_TYPE>
1
5
255

> <PUBCHEM_BONDANNOTATIONS>
10  13  8
11  18  8
14  17  8
15  17  8
16  20  8
18  21  8
20  21  8
3  13  8
3  7  8
5  6  8
5  7  8
5  8  8
6  10  8
7  14  8
8  15  8
9  11  8
9  16  8

$$$$
5548015
  -OEChem-11021604552D

 33 36  0     0  0  0  0  0  0999 V2000
    4.6660   -2.7846    0.0000 O   0  0  0  0  0  0  0  0  0  0  0  0
    5.5442    2.7846    0.0000 O   0  0  0  0  0  0  0  0  0  0  0  0
    2.9180    1.2368    0.0000 O   0  0  0  0  0  0  0  0  0  0  0  0
    6.4501    1.2638    0.0000 N   0  0  0  0  0  0  0  0  0  0  0  0
    5.5321   -0.2846    0.0000 C   0  0  0  0  0  0  0  0  0  0  0  0
    4.6660    0.2154    0.0000 C   0  0  0  0  0  0  0  0  0  0  0  0
    3.8000   -0.2846    0.0000 C   0  0  0  0  0  0  0  0  0  0  0  0
    5.5321   -1.2846    0.0000 C   0  0  0  0  0  0  0  0  0  0  0  0
    6.4421    0.2222    0.0000 C   0  0  0  0  0  0  0  0  0  0  0  0
    3.8000   -1.2846    0.0000 C   0  0  0  0  0  0  0  0  0  0  0  0
    4.6500    1.2569    0.0000 C   0  0  0  0  0  0  0  0  0  0  0  0
    4.6660   -1.7846    0.0000 C   0  0  0  0  0  0  0  0  0  0  0  0
    5.5480    1.7846    0.0000 C   0  0  0  0  0  0  0  0  0  0  0  0
    6.3903   -1.7816    0.0000 C   0  0  0  0  0  0  0  0  0  0  0  0
    7.2814   -0.3060    0.0000 C   0  0  0  0  0  0  0  0  0  0  0  0
    2.9061    0.2500    0.0000 C   0  0  0  0  0  0  0  0  0  0  0  0
    2.9061   -1.8193    0.0000 C   0  0  0  0  0  0  0  0  0  0  0  0
    7.2558   -1.2974    0.0000 C   0  0  0  0  0  0  0  0  0  0  0  0
    3.7782    1.7468    0.0000 C   0  0  0  0  0  0  0  0  0  0  0  0
    2.0000   -0.2638    0.0000 C   0  0  0  0  0  0  0  0  0  0  0  0
    2.0000   -1.3054    0.0000 C   0  0  0  0  0  0  0  0  0  0  0  0
    3.7667    2.7468    0.0000 C   0  0  0  0  0  0  0  0  0  0  0  0
    6.9882    1.5718    0.0000 H   0  0  0  0  0  0  0  0  0  0  0  0
    6.3857   -2.4015    0.0000 H   0  0  0  0  0  0  0  0  0  0  0  0
    7.8280   -0.0133    0.0000 H   0  0  0  0  0  0  0  0  0  0  0  0
    2.9132    0.8700    0.0000 H   0  0  0  0  0  0  0  0  0  0  0  0
    2.9132   -2.4392    0.0000 H   0  0  0  0  0  0  0  0  0  0  0  0
    7.7865   -1.6179    0.0000 H   0  0  0  0  0  0  0  0  0  0  0  0
    1.4643    0.0483    0.0000 H   0  0  0  0  0  0  0  0  0  0  0  0
    1.4643   -1.6175    0.0000 H   0  0  0  0  0  0  0  0  0  0  0  0
    4.3866    2.7539    0.0000 H   0  0  0  0  0  0  0  0  0  0  0  0
    3.7595    3.3667    0.0000 H   0  0  0  0  0  0  0  0  0  0  0  0
    3.1467    2.7396    0.0000 H   0  0  0  0  0  0  0  0  0  0  0  0
  1 12  2  0  0  0  0
  2 13  2  0  0  0  0
  3 19  2  0  0  0  0
  4  9  1  0  0  0  0
  4 13  1  0  0  0  0
  4 23  1  0  0  0  0
  5  6  1  0  0  0  0
  5  8  2  0  0  0  0
  5  9  1  0  0  0  0
  6  7  1  0  0  0  0
  6 11  2  0  0  0  0
  7 10  1  0  0  0  0
  7 16  2  0  0  0  0
  8 12  1  0  0  0  0
  8 14  1  0  0  0  0
  9 15  2  0  0  0  0
 10 12  1  0  0  0  0
 10 17  2  0  0  0  0
 11 13  1  0  0  0  0
 11 19  1  0  0  0  0
 14 18  2  0  0  0  0
 14 24  1  0  0  0  0
 15 18  1  0  0  0  0
 15 25  1  0  0  0  0
 16 20  1  0  0  0  0
 16 26  1  0  0  0  0
 17 21  1  0  0  0  0
 17 27  1  0  0  0  0
 18 28  1  0  0  0  0
 19 22  1  0  0  0  0
 20 21  2  0  0  0  0
 20 29  1  0  0  0  0
 21 30  1  0  0  0  0
 22 31  1  0  0  0  0
 22 32  1  0  0  0  0
 22 33  1  0  0  0  0
M  END
> <PUBCHEM_COMPOUND_CID>
5548015

> <PUBCHEM_COMPOUND_CANONICALIZED>
1

> <PUBCHEM_CACTVS_COMPLEXITY>
591

> <PUBCHEM_CACTVS_HBOND_ACCEPTOR>
3

> <PUBCHEM_CACTVS_HBOND_DONOR>
1

> <PUBCHEM_CACTVS_ROTATABLE_BOND>
1

> <PUBCHEM_CACTVS_SUBSKEYS>
AAADccB6MAAAAAAAAAAAAAAAAAAAAAAAAAAwYMEAAAAAAADBQAAAHgAQAAAADAyBmAAywILAAACIAqVSUACCAAAlAgAIiAEAZMgIIDrIlZGEIQhglADIyYcciMCOgAAAQAASAACAAASAACQAAAAAAAAAAA==

> <PUBCHEM_IUPAC_INCHI>
InChI=1S/C18H11NO3/c1-9(20)14-16-10-5-2-3-6-11(10)17(21)12-7-4-8-13(15(12)16)19-18(14)22/h2-8H,1H3,(H,19,22)

> <PUBCHEM_IUPAC_INCHIKEY>
KPCZTWRJINKFBD-UHFFFAOYSA-N

> <PUBCHEM_XLOGP3_AA>
1.9

> <PUBCHEM_EXACT_MASS>
289.074

> <PUBCHEM_MOLECULAR_FORMULA>
C18H11NO3

> <PUBCHEM_MOLECULAR_WEIGHT>
289.29

> <PUBCHEM_OPENEYE_CAN_SMILES>
CC(=O)C1=C2C3=CC=CC=C3C(=O)C4=C2C(=CC=C4)NC1=O

> <PUBCHEM_OPENEYE_ISO_SMILES>
CC(=O)C1=C2C3=CC=CC=C3C(=O)C4=C2C(=CC=C4)NC1=O

> <PUBCHEM_CACTVS_TPSA>
63.2

> <PUBCHEM_MONOISOTOPIC_WEIGHT>
289.074

> <PUBCHEM_TOTAL_CHARGE>
0

> <PUBCHEM_HEAVY_ATOM_COUNT>
22

> <PUBCHEM_ATOM_DEF_STEREO_COUNT>
0

> <PUBCHEM_ATOM_UDEF_STEREO_COUNT>
0

> <PUBCHEM_BOND_DEF_STEREO_COUNT>
0

> <PUBCHEM_BOND_UDEF_STEREO_COUNT>
0

> <PUBCHEM_ISOTOPIC_ATOM_COUNT>
0

> <PUBCHEM_COMPONENT_COUNT>
1

> <PUBCHEM_CACTVS_TAUTO_COUNT>
11

> <PUBCHEM_COORDINATE_TYPE>
1
5
255

> <PUBCHEM_BONDANNOTATIONS>
10  17  8
11  13  8
14  18  8
15  18  8
16  20  8
17  21  8
20  21  8
4  13  8
4  9  8
5  6  8
5  8  8
5  9  8
6  11  8
7  10  8
7  16  8
8  14  8
9  15  8

$$$$
5561241
  -OEChem-11021604552D

 36 39  0     0  0  0  0  0  0999 V2000
    4.6660   -2.7846    0.0000 O   0  0  0  0  0  0  0  0  0  0  0  0
    5.5442    2.7846    0.0000 O   0  0  0  0  0  0  0  0  0  0  0  0
    2.9180    1.2368    0.0000 O   0  0  0  0  0  0  0  0  0  0  0  0
    6.4501    1.2638    0.0000 N   0  0  0  0  0  0  0  0  0  0  0  0
    5.5321   -0.2846    0.0000 C   0  0  0  0  0  0  0  0  0  0  0  0
    4.6660    0.2154    0.0000 C   0  0  0  0  0  0  0  0  0  0  0  0
    6.4421    0.2222    0.0000 C   0  0  0  0  0  0  0  0  0  0  0  0
    5.5321   -1.2846    0.0000 C   0  0  0  0  0  0  0  0  0  0  0  0
    3.8000   -0.2846    0.0000 C   0  0  0  0  0  0  0  0  0  0  0  0
    3.8000   -1.2846    0.0000 C   0  0  0  0  0  0  0  0  0  0  0  0
    4.6500    1.2569    0.0000 C   0  0  0  0  0  0  0  0  0  0  0  0
    7.2814   -0.3060    0.0000 C   0  0  0  0  0  0  0  0  0  0  0  0
    4.6660   -1.7846    0.0000 C   0  0  0  0  0  0  0  0  0  0  0  0
    6.3903   -1.7816    0.0000 C   0  0  0  0  0  0  0  0  0  0  0  0
    5.5480    1.7846    0.0000 C   0  0  0  0  0  0  0  0  0  0  0  0
    7.2558   -1.2974    0.0000 C   0  0  0  0  0  0  0  0  0  0  0  0
    2.9061    0.2500    0.0000 C   0  0  0  0  0  0  0  0  0  0  0  0
    2.9061   -1.8193    0.0000 C   0  0  0  0  0  0  0  0  0  0  0  0
    3.7782    1.7468    0.0000 C   0  0  0  0  0  0  0  0  0  0  0  0
    8.1630    0.1660    0.0000 C   0  0  0  0  0  0  0  0  0  0  0  0
    2.0000   -0.2638    0.0000 C   0  0  0  0  0  0  0  0  0  0  0  0
    2.0000   -1.3054    0.0000 C   0  0  0  0  0  0  0  0  0  0  0  0
    3.7667    2.7468    0.0000 C   0  0  0  0  0  0  0  0  0  0  0  0
    6.9882    1.5718    0.0000 H   0  0  0  0  0  0  0  0  0  0  0  0
    6.3857   -2.4015    0.0000 H   0  0  0  0  0  0  0  0  0  0  0  0
    7.7865   -1.6179    0.0000 H   0  0  0  0  0  0  0  0  0  0  0  0
    2.9132    0.8700    0.0000 H   0  0  0  0  0  0  0  0  0  0  0  0
    2.9132   -2.4392    0.0000 H   0  0  0  0  0  0  0  0  0  0  0  0
    8.4556   -0.3805    0.0000 H   0  0  0  0  0  0  0  0  0  0  0  0
    8.7095    0.4587    0.0000 H   0  0  0  0  0  0  0  0  0  0  0  0
    7.8703    0.7126    0.0000 H   0  0  0  0  0  0  0  0  0  0  0  0
    1.4643    0.0483    0.0000 H   0  0  0  0  0  0  0  0  0  0  0  0
    1.4643   -1.6175    0.0000 H   0  0  0  0  0  0  0  0  0  0  0  0
    4.3866    2.7539    0.0000 H   0  0  0  0  0  0  0  0  0  0  0  0
    3.7595    3.3667    0.0000 H   0  0  0  0  0  0  0  0  0  0  0  0
    3.1467    2.7396    0.0000 H   0  0  0  0  0  0  0  0  0  0  0  0
  1 13  2  0  0  0  0
  2 15  2  0  0  0  0
  3 19  2  0  0  0  0
  4  7  1  0  0  0  0
  4 15  1  0  0  0  0
  4 24  1  0  0  0  0
  5  6  1  0  0  0  0
  5  7  1  0  0  0  0
  5  8  2  0  0  0  0
  6  9  1  0  0  0  0
  6 11  2  0  0  0  0
  7 12  2  0  0  0  0
  8 13  1  0  0  0  0
  8 14  1  0  0  0  0
  9 10  1  0  0  0  0
  9 17  2  0  0  0  0
 10 13  1  0  0  0  0
 10 18  2  0  0  0  0
 11 15  1  0  0  0  0
 11 19  1  0  0  0  0
 12 16  1  0  0  0  0
 12 20  1  0  0  0  0
 14 16  2  0  0  0  0
 14 25  1  0  0  0  0
 16 26  1  0  0  0  0
 17 21  1  0  0  0  0
 17 27  1  0  0  0  0
 18 22  1  0  0  0  0
 18 28  1  0  0  0  0
 19 23  1  0  0  0  0
 20 29  1  0  0  0  0
 20 30  1  0  0  0  0
 20 31  1  0  0  0  0
 21 22  2  0  0  0  0
 21 32  1  0  0  0  0
 22 33  1  0  0  0  0
 23 34  1  0  0  0  0
 23 35  1  0  0  0  0
 23 36  1  0  0  0  0
M  END
> <PUBCHEM_COMPOUND_CID>
5561241

> <PUBCHEM_COMPOUND_CANONICALIZED>
1

> <PUBCHEM_CACTVS_COMPLEXITY>
620

> <PUBCHEM_CACTVS_HBOND_ACCEPTOR>
3

> <PUBCHEM_CACTVS_HBOND_DONOR>
1

> <PUBCHEM_CACTVS_ROTATABLE_BOND>
1

> <PUBCHEM_CACTVS_SUBSKEYS>
AAADccB6MAAAAAAAAAAAAAAAAAAAAAAAAAAwYMEAAAAAAADBQAAAHgAQAAAADAyBmAAywILAAACIAqVSUACCAAAlAAAIiAEARMgIIDrIlZGEIQhghADIyYcciMCOwAACQAASAACAAASAACQAAAAAAAAAAA==

> <PUBCHEM_IUPAC_INCHI>
InChI=1S/C19H13NO3/c1-9-7-8-13-16-15(11-5-3-4-6-12(11)18(13)22)14(10(2)21)19(23)20-17(9)16/h3-8H,1-2H3,(H,20,23)

> <PUBCHEM_IUPAC_INCHIKEY>
CLPWRVXDYZWECA-UHFFFAOYSA-N

> <PUBCHEM_XLOGP3_AA>
2.3

> <PUBCHEM_EXACT_MASS>
303.09

> <PUBCHEM_MOLECULAR_FORMULA>
C19H13NO3

> <PUBCHEM_MOLECULAR_WEIGHT>
303.317

> <PUBCHEM_OPENEYE_CAN_SMILES>
CC1=C2C3=C(C=C1)C(=O)C4=CC=CC=C4C3=C(C(=O)N2)C(=O)C

> <PUBCHEM_OPENEYE_ISO_SMILES>
CC1=C2C3=C(C=C1)C(=O)C4=CC=CC=C4C3=C(C(=O)N2)C(=O)C

> <PUBCHEM_CACTVS_TPSA>
63.2

> <PUBCHEM_MONOISOTOPIC_WEIGHT>
303.09

> <PUBCHEM_TOTAL_CHARGE>
0

> <PUBCHEM_HEAVY_ATOM_COUNT>
23

> <PUBCHEM_ATOM_DEF_STEREO_COUNT>
0

> <PUBCHEM_ATOM_UDEF_STEREO_COUNT>
0

> <PUBCHEM_BOND_DEF_STEREO_COUNT>
0

> <PUBCHEM_BOND_UDEF_STEREO_COUNT>
0

> <PUBCHEM_ISOTOPIC_ATOM_COUNT>
0

> <PUBCHEM_COMPONENT_COUNT>
1

> <PUBCHEM_CACTVS_TAUTO_COUNT>
40

> <PUBCHEM_COORDINATE_TYPE>
1
5
255

> <PUBCHEM_BONDANNOTATIONS>
10  18  8
11  15  8
12  16  8
14  16  8
17  21  8
18  22  8
21  22  8
4  15  8
4  7  8
5  6  8
5  7  8
5  8  8
6  11  8
7  12  8
8  14  8
9  10  8
9  17  8

$$$$
712714
  -OEChem-11021604552D

 39 42  0     0  0  0  0  0  0999 V2000
    4.6660   -3.0107    0.0000 O   0  0  0  0  0  0  0  0  0  0  0  0
    5.5442    2.5586    0.0000 O   0  0  0  0  0  0  0  0  0  0  0  0
    6.4501    1.0378    0.0000 N   0  0  0  0  0  0  0  0  0  0  0  0
    3.7782    1.5208    0.0000 N   0  0  0  0  0  0  0  0  0  0  0  0
    5.5321   -0.5107    0.0000 C   0  0  0  0  0  0  0  0  0  0  0  0
    4.6660   -0.0107    0.0000 C   0  0  0  0  0  0  0  0  0  0  0  0
    6.4421   -0.0038    0.0000 C   0  0  0  0  0  0  0  0  0  0  0  0
    5.5321   -1.5107    0.0000 C   0  0  0  0  0  0  0  0  0  0  0  0
    3.8000   -0.5107    0.0000 C   0  0  0  0  0  0  0  0  0  0  0  0
    4.6500    1.0308    0.0000 C   0  0  0  0  0  0  0  0  0  0  0  0
    3.8000   -1.5107    0.0000 C   0  0  0  0  0  0  0  0  0  0  0  0
    4.6660   -2.0107    0.0000 C   0  0  0  0  0  0  0  0  0  0  0  0
    5.5480    1.5586    0.0000 C   0  0  0  0  0  0  0  0  0  0  0  0
    7.2814   -0.5321    0.0000 C   0  0  0  0  0  0  0  0  0  0  0  0
    6.3903   -2.0076    0.0000 C   0  0  0  0  0  0  0  0  0  0  0  0
    2.9061    0.0240    0.0000 C   0  0  0  0  0  0  0  0  0  0  0  0
    7.2558   -1.5234    0.0000 C   0  0  0  0  0  0  0  0  0  0  0  0
    2.9061   -2.0453    0.0000 C   0  0  0  0  0  0  0  0  0  0  0  0
    7.3180    1.5344    0.0000 C   0  0  0  0  0  0  0  0  0  0  0  0
    3.7667    2.5207    0.0000 C   0  0  0  0  0  0  0  0  0  0  0  0
    2.0000   -0.4899    0.0000 C   0  0  0  0  0  0  0  0  0  0  0  0
    2.0000   -1.5315    0.0000 C   0  0  0  0  0  0  0  0  0  0  0  0
    2.8949    3.0107    0.0000 C   0  0  0  0  0  0  0  0  0  0  0  0
    7.8280   -0.2394    0.0000 H   0  0  0  0  0  0  0  0  0  0  0  0
    6.3857   -2.6276    0.0000 H   0  0  0  0  0  0  0  0  0  0  0  0
    3.2449    1.2046    0.0000 H   0  0  0  0  0  0  0  0  0  0  0  0
    2.9132    0.6439    0.0000 H   0  0  0  0  0  0  0  0  0  0  0  0
    7.7865   -1.8439    0.0000 H   0  0  0  0  0  0  0  0  0  0  0  0
    2.9132   -2.6653    0.0000 H   0  0  0  0  0  0  0  0  0  0  0  0
    7.6260    0.9963    0.0000 H   0  0  0  0  0  0  0  0  0  0  0  0
    7.8562    1.8424    0.0000 H   0  0  0  0  0  0  0  0  0  0  0  0
    7.0101    2.0726    0.0000 H   0  0  0  0  0  0  0  0  0  0  0  0
    4.3784    2.4201    0.0000 H   0  0  0  0  0  0  0  0  0  0  0  0
    3.9720    3.1057    0.0000 H   0  0  0  0  0  0  0  0  0  0  0  0
    1.4643   -0.1778    0.0000 H   0  0  0  0  0  0  0  0  0  0  0  0
    1.4643   -1.8436    0.0000 H   0  0  0  0  0  0  0  0  0  0  0  0
    3.1987    3.5512    0.0000 H   0  0  0  0  0  0  0  0  0  0  0  0
    2.3544    3.3144    0.0000 H   0  0  0  0  0  0  0  0  0  0  0  0
    2.5911    2.4702    0.0000 H   0  0  0  0  0  0  0  0  0  0  0  0
  1 12  2  0  0  0  0
  2 13  2  0  0  0  0
  3  7  1  0  0  0  0
  3 13  1  0  0  0  0
  3 19  1  0  0  0  0
  4 10  1  0  0  0  0
  4 20  1  0  0  0  0
  4 26  1  0  0  0  0
  5  6  1  0  0  0  0
  5  7  1  0  0  0  0
  5  8  2  0  0  0  0
  6  9  1  0  0  0  0
  6 10  2  0  0  0  0
  7 14  2  0  0  0  0
  8 12  1  0  0  0  0
  8 15  1  0  0  0  0
  9 11  1  0  0  0  0
  9 16  2  0  0  0  0
 10 13  1  0  0  0  0
 11 12  1  0  0  0  0
 11 18  2  0  0  0  0
 14 17  1  0  0  0  0
 14 24  1  0  0  0  0
 15 17  2  0  0  0  0
 15 25  1  0  0  0  0
 16 21  1  0  0  0  0
 16 27  1  0  0  0  0
 17 28  1  0  0  0  0
 18 22  1  0  0  0  0
 18 29  1  0  0  0  0
 19 30  1  0  0  0  0
 19 31  1  0  0  0  0
 19 32  1  0  0  0  0
 20 23  1  0  0  0  0
 20 33  1  0  0  0  0
 20 34  1  0  0  0  0
 21 22  2  0  0  0  0
 21 35  1  0  0  0  0
 22 36  1  0  0  0  0
 23 37  1  0  0  0  0
 23 38  1  0  0  0  0
 23 39  1  0  0  0  0
M  END
> <PUBCHEM_COMPOUND_CID>
712714

> <PUBCHEM_COMPOUND_CANONICALIZED>
1

> <PUBCHEM_CACTVS_COMPLEXITY>
568

> <PUBCHEM_CACTVS_HBOND_ACCEPTOR>
3

> <PUBCHEM_CACTVS_HBOND_DONOR>
1

> <PUBCHEM_CACTVS_ROTATABLE_BOND>
2

> <PUBCHEM_CACTVS_SUBSKEYS>
AAADceB7MAAAAAAAAAAAAAAAAAAAAAAAAAAwYMEAAAAAAADBQAAAHgAQAAAADAzBmAQywIPAAACIAqVSUACCAAAlAgAIiIGIZMgIYDLAlbGUIQhglgDIyYcciMCOgAAAQAASAACAAASAACQAAAAAAAAAAA==

> <PUBCHEM_IUPAC_INCHI>
InChI=1S/C19H16N2O2/c1-3-20-17-16-11-7-4-5-8-12(11)18(22)13-9-6-10-14(15(13)16)21(2)19(17)23/h4-10,20H,3H2,1-2H3

> <PUBCHEM_IUPAC_INCHIKEY>
AVFQMEROHOFTEF-UHFFFAOYSA-N

> <PUBCHEM_XLOGP3_AA>
2.8

> <PUBCHEM_EXACT_MASS>
304.121

> <PUBCHEM_MOLECULAR_FORMULA>
C19H16N2O2

> <PUBCHEM_MOLECULAR_WEIGHT>
304.349

> <PUBCHEM_OPENEYE_CAN_SMILES>
CCNC1=C2C3=CC=CC=C3C(=O)C4=C2C(=CC=C4)N(C1=O)C

> <PUBCHEM_OPENEYE_ISO_SMILES>
CCNC1=C2C3=CC=CC=C3C(=O)C4=C2C(=CC=C4)N(C1=O)C

> <PUBCHEM_CACTVS_TPSA>
49.4

> <PUBCHEM_MONOISOTOPIC_WEIGHT>
304.121

> <PUBCHEM_TOTAL_CHARGE>
0

> <PUBCHEM_HEAVY_ATOM_COUNT>
23

> <PUBCHEM_ATOM_DEF_STEREO_COUNT>
0

> <PUBCHEM_ATOM_UDEF_STEREO_COUNT>
0

> <PUBCHEM_BOND_DEF_STEREO_COUNT>
0

> <PUBCHEM_BOND_UDEF_STEREO_COUNT>
0

> <PUBCHEM_ISOTOPIC_ATOM_COUNT>
0

> <PUBCHEM_COMPONENT_COUNT>
1

> <PUBCHEM_CACTVS_TAUTO_COUNT>
2

> <PUBCHEM_COORDINATE_TYPE>
1
3

> <PUBCHEM_BONDANNOTATIONS>
10  13  8
11  18  8
14  17  8
15  17  8
16  21  8
18  22  8
21  22  8
3  13  8
3  7  8
5  6  8
5  7  8
5  8  8
6  10  8
7  14  8
8  15  8
9  11  8
9  16  8

$$$$
650462
  -OEChem-11021604552D

 40 43  0     0  0  0  0  0  0999 V2000
    5.5442    1.9067    0.0000 O   0  0  0  0  0  0  0  0  0  0  0  0
    4.6660   -3.6625    0.0000 O   0  0  0  0  0  0  0  0  0  0  0  0
    2.8834    3.3588    0.0000 O   0  0  0  0  0  0  0  0  0  0  0  0
    6.4501    0.3859    0.0000 N   0  0  0  0  0  0  0  0  0  0  0  0
    3.7782    0.8689    0.0000 N   0  0  0  0  0  0  0  0  0  0  0  0
    5.5321   -1.1625    0.0000 C   0  0  0  0  0  0  0  0  0  0  0  0
    4.6660   -0.6625    0.0000 C   0  0  0  0  0  0  0  0  0  0  0  0
    6.4421   -0.6557    0.0000 C   0  0  0  0  0  0  0  0  0  0  0  0
    5.5321   -2.1625    0.0000 C   0  0  0  0  0  0  0  0  0  0  0  0
    3.8000   -1.1625    0.0000 C   0  0  0  0  0  0  0  0  0  0  0  0
    4.6500    0.3790    0.0000 C   0  0  0  0  0  0  0  0  0  0  0  0
    3.8000   -2.1625    0.0000 C   0  0  0  0  0  0  0  0  0  0  0  0
    5.5480    0.9067    0.0000 C   0  0  0  0  0  0  0  0  0  0  0  0
    4.6660   -2.6625    0.0000 C   0  0  0  0  0  0  0  0  0  0  0  0
    7.2814   -1.1839    0.0000 C   0  0  0  0  0  0  0  0  0  0  0  0
    6.3903   -2.6594    0.0000 C   0  0  0  0  0  0  0  0  0  0  0  0
    2.9061   -0.6279    0.0000 C   0  0  0  0  0  0  0  0  0  0  0  0
    7.2558   -2.1753    0.0000 C   0  0  0  0  0  0  0  0  0  0  0  0
    2.9061   -2.6972    0.0000 C   0  0  0  0  0  0  0  0  0  0  0  0
    7.3180    0.8826    0.0000 C   0  0  0  0  0  0  0  0  0  0  0  0
    3.7667    1.8689    0.0000 C   0  0  0  0  0  0  0  0  0  0  0  0
    2.0000   -1.1417    0.0000 C   0  0  0  0  0  0  0  0  0  0  0  0
    2.0000   -2.1833    0.0000 C   0  0  0  0  0  0  0  0  0  0  0  0
    2.8949    2.3588    0.0000 C   0  0  0  0  0  0  0  0  0  0  0  0
    7.8280   -0.8912    0.0000 H   0  0  0  0  0  0  0  0  0  0  0  0
    6.3857   -3.2794    0.0000 H   0  0  0  0  0  0  0  0  0  0  0  0
    3.2449    0.5527    0.0000 H   0  0  0  0  0  0  0  0  0  0  0  0
    2.9132   -0.0079    0.0000 H   0  0  0  0  0  0  0  0  0  0  0  0
    7.7865   -2.4958    0.0000 H   0  0  0  0  0  0  0  0  0  0  0  0
    2.9132   -3.3171    0.0000 H   0  0  0  0  0  0  0  0  0  0  0  0
    7.6260    0.3445    0.0000 H   0  0  0  0  0  0  0  0  0  0  0  0
    7.8562    1.1905    0.0000 H   0  0  0  0  0  0  0  0  0  0  0  0
    7.0101    1.4207    0.0000 H   0  0  0  0  0  0  0  0  0  0  0  0
    4.3784    1.7683    0.0000 H   0  0  0  0  0  0  0  0  0  0  0  0
    3.9720    2.4539    0.0000 H   0  0  0  0  0  0  0  0  0  0  0  0
    1.4643   -0.8296    0.0000 H   0  0  0  0  0  0  0  0  0  0  0  0
    1.4643   -2.4954    0.0000 H   0  0  0  0  0  0  0  0  0  0  0  0
    2.2831    2.4594    0.0000 H   0  0  0  0  0  0  0  0  0  0  0  0
    2.6896    1.7738    0.0000 H   0  0  0  0  0  0  0  0  0  0  0  0
    2.3429    3.6625    0.0000 H   0  0  0  0  0  0  0  0  0  0  0  0
  1 13  2  0  0  0  0
  2 14  2  0  0  0  0
  3 24  1  0  0  0  0
  3 40  1  0  0  0  0
  4  8  1  0  0  0  0
  4 13  1  0  0  0  0
  4 20  1  0  0  0  0
  5 11  1  0  0  0  0
  5 21  1  0  0  0  0
  5 27  1  0  0  0  0
  6  7  1  0  0  0  0
  6  8  1  0  0  0  0
  6  9  2  0  0  0  0
  7 10  1  0  0  0  0
  7 11  2  0  0  0  0
  8 15  2  0  0  0  0
  9 14  1  0  0  0  0
  9 16  1  0  0  0  0
 10 12  1  0  0  0  0
 10 17  2  0  0  0  0
 11 13  1  0  0  0  0
 12 14  1  0  0  0  0
 12 19  2  0  0  0  0
 15 18  1  0  0  0  0
 15 25  1  0  0  0  0
 16 18  2  0  0  0  0
 16 26  1  0  0  0  0
 17 22  1  0  0  0  0
 17 28  1  0  0  0  0
 18 29  1  0  0  0  0
 19 23  1  0  0  0  0
 19 30  1  0  0  0  0
 20 31  1  0  0  0  0
 20 32  1  0  0  0  0
 20 33  1  0  0  0  0
 21 24  1  0  0  0  0
 21 34  1  0  0  0  0
 21 35  1  0  0  0  0
 22 23  2  0  0  0  0
 22 36  1  0  0  0  0
 23 37  1  0  0  0  0
 24 38  1  0  0  0  0
 24 39  1  0  0  0  0
M  END
> <PUBCHEM_COMPOUND_CID>
650462

> <PUBCHEM_COMPOUND_CANONICALIZED>
1

> <PUBCHEM_CACTVS_COMPLEXITY>
585

> <PUBCHEM_CACTVS_HBOND_ACCEPTOR>
4

> <PUBCHEM_CACTVS_HBOND_DONOR>
2

> <PUBCHEM_CACTVS_ROTATABLE_BOND>
3

> <PUBCHEM_CACTVS_SUBSKEYS>
AAADceB7MAAAAAAAAAAAAAAAAAAAAAAAAAAwYMEAAAAAAADBQAAAHgAQCAAADAzhmAYywIPAAgCIAqVSUACCAAAlAgAIiIGIZMgKcDLAlbGUIQhglgDYyYcciMCOgAAAQAASAACAAASAACQAAAAAAAAAAA==

> <PUBCHEM_IUPAC_INCHI>
InChI=1S/C19H16N2O3/c1-21-14-8-4-7-13-15(14)16(17(19(21)24)20-9-10-22)11-5-2-3-6-12(11)18(13)23/h2-8,20,22H,9-10H2,1H3

> <PUBCHEM_IUPAC_INCHIKEY>
JHRNUMVGSNJFOB-UHFFFAOYSA-N

> <PUBCHEM_XLOGP3_AA>
1.7

> <PUBCHEM_EXACT_MASS>
320.116

> <PUBCHEM_MOLECULAR_FORMULA>
C19H16N2O3

> <PUBCHEM_MOLECULAR_WEIGHT>
320.348

> <PUBCHEM_OPENEYE_CAN_SMILES>
CN1C2=CC=CC3=C2C(=C(C1=O)NCCO)C4=CC=CC=C4C3=O

> <PUBCHEM_OPENEYE_ISO_SMILES>
CN1C2=CC=CC3=C2C(=C(C1=O)NCCO)C4=CC=CC=C4C3=O

> <PUBCHEM_CACTVS_TPSA>
69.6

> <PUBCHEM_MONOISOTOPIC_WEIGHT>
320.116

> <PUBCHEM_TOTAL_CHARGE>
0

> <PUBCHEM_HEAVY_ATOM_COUNT>
24

> <PUBCHEM_ATOM_DEF_STEREO_COUNT>
0

> <PUBCHEM_ATOM_UDEF_STEREO_COUNT>
0

> <PUBCHEM_BOND_DEF_STEREO_COUNT>
0

> <PUBCHEM_BOND_UDEF_STEREO_COUNT>
0

> <PUBCHEM_ISOTOPIC_ATOM_COUNT>
0

> <PUBCHEM_COMPONENT_COUNT>
1

> <PUBCHEM_CACTVS_TAUTO_COUNT>
2

> <PUBCHEM_COORDINATE_TYPE>
1
3

> <PUBCHEM_BONDANNOTATIONS>
10  12  8
10  17  8
11  13  8
12  19  8
15  18  8
16  18  8
17  22  8
19  23  8
22  23  8
4  13  8
4  8  8
6  7  8
6  8  8
6  9  8
7  11  8
8  15  8
9  16  8

$$$$
