451705
  -OEChem-11021605012D

 61 68  0     1  0  0  0  0  0999 V2000
    7.7141    2.8707    0.0000 O   0  0  0  0  0  0  0  0  0  0  0  0
    9.9489   -1.1211    0.0000 O   0  0  0  0  0  0  0  0  0  0  0  0
    2.0000   -0.0099    0.0000 O   0  0  0  0  0  0  0  0  0  0  0  0
    6.8258   -0.4438    0.0000 N   0  0  0  0  0  0  0  0  0  0  0  0
    5.8258    1.2882    0.0000 N   0  0  0  0  0  0  0  0  0  0  0  0
   11.6396    0.2480    0.0000 N   0  0  0  0  0  0  0  0  0  0  0  0
    2.6370   -1.7076    0.0000 N   0  0  0  0  0  0  0  0  0  0  0  0
    8.1919    0.9222    0.0000 C   0  0  1  0  0  0  0  0  0  0  0  0
    9.8966   -0.1225    0.0000 C   0  0  2  0  0  0  0  0  0  0  0  0
    8.4507    1.8881    0.0000 C   0  0  2  0  0  0  0  0  0  0  0  0
   10.6737    0.5069    0.0000 C   0  0  2  0  0  0  0  0  0  0  0  0
   10.3153    1.4404    0.0000 C   0  0  0  0  0  0  0  0  0  0  0  0
    5.8258   -0.4438    0.0000 C   0  0  0  0  0  0  0  0  0  0  0  0
    5.3258    0.4222    0.0000 C   0  0  0  0  0  0  0  0  0  0  0  0
    5.3190   -1.3538    0.0000 C   0  0  0  0  0  0  0  0  0  0  0  0
    4.2843    0.4382    0.0000 C   0  0  0  0  0  0  0  0  0  0  0  0
    6.9718   -1.4269    0.0000 C   0  0  0  0  0  0  0  0  0  0  0  0
    7.9330   -0.0437    0.0000 C   0  0  0  0  0  0  0  0  0  0  0  0
    5.0475    1.9061    0.0000 C   0  0  0  0  0  0  0  0  0  0  0  0
    6.1211   -1.9406    0.0000 C   0  0  0  0  0  0  0  0  0  0  0  0
    4.2774   -1.3619    0.0000 C   0  0  0  0  0  0  0  0  0  0  0  0
    3.7566   -0.4598    0.0000 C   0  0  0  0  0  0  0  0  0  0  0  0
    4.1772    1.4263    0.0000 C   0  0  0  0  0  0  0  0  0  0  0  0
    3.5825   -2.1296    0.0000 C   0  0  0  0  0  0  0  0  0  0  0  0
    7.8859   -1.9127    0.0000 C   0  0  0  0  0  0  0  0  0  0  0  0
    2.7443   -0.6777    0.0000 C   0  0  0  0  0  0  0  0  0  0  0  0
    6.1255   -2.9758    0.0000 C   0  0  0  0  0  0  0  0  0  0  0  0
    5.0838    2.9407    0.0000 C   0  0  0  0  0  0  0  0  0  0  0  0
    3.2829    1.9477    0.0000 C   0  0  0  0  0  0  0  0  0  0  0  0
   12.3467    0.9551    0.0000 C   0  0  0  0  0  0  0  0  0  0  0  0
   10.8399   -1.5751    0.0000 C   0  0  0  0  0  0  0  0  0  0  0  0
    7.9143   -2.9475    0.0000 C   0  0  0  0  0  0  0  0  0  0  0  0
    7.0281   -3.4826    0.0000 C   0  0  0  0  0  0  0  0  0  0  0  0
    4.2018    3.4826    0.0000 C   0  0  0  0  0  0  0  0  0  0  0  0
    3.2953    2.9828    0.0000 C   0  0  0  0  0  0  0  0  0  0  0  0
   10.4630   -0.3746    0.0000 H   0  0  0  0  0  0  0  0  0  0  0  0
    8.6707    2.7091    0.0000 H   0  0  0  0  0  0  0  0  0  0  0  0
   10.8026   -0.0996    0.0000 H   0  0  0  0  0  0  0  0  0  0  0  0
   10.9268    1.5428    0.0000 H   0  0  0  0  0  0  0  0  0  0  0  0
   10.3370    2.0601    0.0000 H   0  0  0  0  0  0  0  0  0  0  0  0
    7.3342    0.1167    0.0000 H   0  0  0  0  0  0  0  0  0  0  0  0
    7.7726   -0.6426    0.0000 H   0  0  0  0  0  0  0  0  0  0  0  0
    8.5319   -0.2042    0.0000 H   0  0  0  0  0  0  0  0  0  0  0  0
   11.8001   -0.3508    0.0000 H   0  0  0  0  0  0  0  0  0  0  0  0
    3.2718   -2.6661    0.0000 H   0  0  0  0  0  0  0  0  0  0  0  0
    4.0834   -2.4950    0.0000 H   0  0  0  0  0  0  0  0  0  0  0  0
    8.4129   -1.5861    0.0000 H   0  0  0  0  0  0  0  0  0  0  0  0
    5.5911   -3.2902    0.0000 H   0  0  0  0  0  0  0  0  0  0  0  0
    5.6302    3.2338    0.0000 H   0  0  0  0  0  0  0  0  0  0  0  0
    2.1000   -2.0176    0.0000 H   0  0  0  0  0  0  0  0  0  0  0  0
    2.7435    1.6421    0.0000 H   0  0  0  0  0  0  0  0  0  0  0  0
   12.7851    0.5167    0.0000 H   0  0  0  0  0  0  0  0  0  0  0  0
   12.7851    1.3936    0.0000 H   0  0  0  0  0  0  0  0  0  0  0  0
   11.9083    1.3936    0.0000 H   0  0  0  0  0  0  0  0  0  0  0  0
   10.5584   -2.1275    0.0000 H   0  0  0  0  0  0  0  0  0  0  0  0
   11.3923   -1.8566    0.0000 H   0  0  0  0  0  0  0  0  0  0  0  0
   11.1214   -1.0227    0.0000 H   0  0  0  0  0  0  0  0  0  0  0  0
    8.4584   -3.2448    0.0000 H   0  0  0  0  0  0  0  0  0  0  0  0
    7.0380   -4.1026    0.0000 H   0  0  0  0  0  0  0  0  0  0  0  0
    4.2164    4.1025    0.0000 H   0  0  0  0  0  0  0  0  0  0  0  0
    2.7634    3.3013    0.0000 H   0  0  0  0  0  0  0  0  0  0  0  0
  1  8  1  0  0  0  0
  1 10  1  0  0  0  0
  9  2  1  6  0  0  0
  2 31  1  0  0  0  0
  3 26  2  0  0  0  0
  4  8  1  0  0  0  0
  4 13  1  0  0  0  0
  4 17  1  0  0  0  0
  5 10  1  0  0  0  0
  5 14  1  0  0  0  0
  5 19  1  0  0  0  0
 11  6  1  6  0  0  0
  6 30  1  0  0  0  0
  6 44  1  0  0  0  0
  7 24  1  0  0  0  0
  7 26  1  0  0  0  0
  7 50  1  0  0  0  0
  8  9  1  0  0  0  0
  8 18  1  1  0  0  0
  9 11  1  0  0  0  0
  9 36  1  0  0  0  0
 10 12  1  0  0  0  0
 10 37  1  6  0  0  0
 11 12  1  0  0  0  0
 11 38  1  0  0  0  0
 12 39  1  0  0  0  0
 12 40  1  0  0  0  0
 13 14  2  0  0  0  0
 13 15  1  0  0  0  0
 14 16  1  0  0  0  0
 15 20  1  0  0  0  0
 15 21  2  0  0  0  0
 16 22  2  0  0  0  0
 16 23  1  0  0  0  0
 17 20  1  0  0  0  0
 17 25  2  0  0  0  0
 18 41  1  0  0  0  0
 18 42  1  0  0  0  0
 18 43  1  0  0  0  0
 19 23  1  0  0  0  0
 19 28  2  0  0  0  0
 20 27  2  0  0  0  0
 21 22  1  0  0  0  0
 21 24  1  0  0  0  0
 22 26  1  0  0  0  0
 23 29  2  0  0  0  0
 24 45  1  0  0  0  0
 24 46  1  0  0  0  0
 25 32  1  0  0  0  0
 25 47  1  0  0  0  0
 27 33  1  0  0  0  0
 27 48  1  0  0  0  0
 28 34  1  0  0  0  0
 28 49  1  0  0  0  0
 29 35  1  0  0  0  0
 29 51  1  0  0  0  0
 30 52  1  0  0  0  0
 30 53  1  0  0  0  0
 30 54  1  0  0  0  0
 31 55  1  0  0  0  0
 31 56  1  0  0  0  0
 31 57  1  0  0  0  0
 32 33  2  0  0  0  0
 32 58  1  0  0  0  0
 33 59  1  0  0  0  0
 34 35  2  0  0  0  0
 34 60  1  0  0  0  0
 35 61  1  0  0  0  0
M  END
> <PUBCHEM_COMPOUND_CID>
451705

> <PUBCHEM_COMPOUND_CANONICALIZED>
1

> <PUBCHEM_CACTVS_COMPLEXITY>
901

> <PUBCHEM_CACTVS_HBOND_ACCEPTOR>
4

> <PUBCHEM_CACTVS_HBOND_DONOR>
2

> <PUBCHEM_CACTVS_ROTATABLE_BOND>
2

> <PUBCHEM_CACTVS_SUBSKEYS>
AAADceB7sAAAAAAAAAAAAAAAAAAAAWLFgAA0YMEABYAAAFix/gAAHgAQAAAADDzhngYywPPMFACoAyVyVACCgCQlEiAI2KE4dNgLYPLA1ZGfIQhmlgDayQf82cOeyAACQAASACCQAASAACQAQAAAAAAAAA==

> <PUBCHEM_IUPAC_INCHI>
InChI=1S/C28H26N4O3/c1-28-26(34-3)17(29-2)12-20(35-28)31-18-10-6-4-8-14(18)22-23-16(13-30-27(23)33)21-15-9-5-7-11-19(15)32(28)25(21)24(22)31/h4-11,17,20,26,29H,12-13H2,1-3H3,(H,30,33)/t17-,20-,26-,28+/m0/s1

> <PUBCHEM_IUPAC_INCHIKEY>
HKSZLNNOFSGOKW-HMWZOHBLSA-N

> <PUBCHEM_XLOGP3_AA>
3.2

> <PUBCHEM_EXACT_MASS>
466.2

> <PUBCHEM_MOLECULAR_FORMULA>
C28H26N4O3

> <PUBCHEM_MOLECULAR_WEIGHT>
466.541

> <PUBCHEM_OPENEYE_CAN_SMILES>
CC12C(C(CC(O1)N3C4=CC=CC=C4C5=C6C(=C7C8=CC=CC=C8N2C7=C53)CNC6=O)NC)OC

> <PUBCHEM_OPENEYE_ISO_SMILES>
C[C@]12[C@H]([C@H](C[C@H](O1)N3C4=CC=CC=C4C5=C6C(=C7C8=CC=CC=C8N2C7=C53)CNC6=O)NC)OC

> <PUBCHEM_CACTVS_TPSA>
69.4

> <PUBCHEM_MONOISOTOPIC_WEIGHT>
466.2

> <PUBCHEM_TOTAL_CHARGE>
0

> <PUBCHEM_HEAVY_ATOM_COUNT>
35

> <PUBCHEM_ATOM_DEF_STEREO_COUNT>
4

> <PUBCHEM_ATOM_UDEF_STEREO_COUNT>
0

> <PUBCHEM_BOND_DEF_STEREO_COUNT>
0

> <PUBCHEM_BOND_UDEF_STEREO_COUNT>
0

> <PUBCHEM_ISOTOPIC_ATOM_COUNT>
0

> <PUBCHEM_COMPONENT_COUNT>
1

> <PUBCHEM_CACTVS_TAUTO_COUNT>
2

> <PUBCHEM_COORDINATE_TYPE>
1
5
255

> <PUBCHEM_BONDANNOTATIONS>
10  37  6
13  14  8
13  15  8
14  16  8
15  20  8
15  21  8
16  22  8
16  23  8
17  20  8
17  25  8
19  23  8
19  28  8
9  2  6
20  27  8
21  22  8
23  29  8
25  32  8
27  33  8
28  34  8
29  35  8
32  33  8
34  35  8
4  13  8
4  17  8
5  14  8
5  19  8
11  6  6
8  18  5

$$$$
2858522
  -OEChem-11021605012D

 75 76  0     0  0  0  0  0  0999 V2000
    4.2670    0.0000    0.0000 Br  0  0  0  0  0  0  0  0  0  0  0  0
    6.6130   10.6045    0.0000 O   0  0  0  0  0  0  0  0  0  0  0  0
    6.0382    6.0582    0.0000 O   0  0  0  0  0  0  0  0  0  0  0  0
    8.6648    3.1089    0.0000 O   0  0  0  0  0  0  0  0  0  0  0  0
    4.0812    5.6457    0.0000 N   0  0  0  0  0  0  0  0  0  0  0  0
    4.0812    4.0362    0.0000 N   0  0  0  0  0  0  0  0  0  0  0  0
    5.6648    4.8410    0.0000 N   0  0  0  0  0  0  0  0  0  0  0  0
    7.9487    9.1159    0.0000 C   0  0  0  0  0  0  0  0  0  0  0  0
    4.6560   10.1921    0.0000 C   0  0  0  0  0  0  0  0  0  0  0  0
    6.9702    8.9097    0.0000 C   0  0  0  0  0  0  0  0  0  0  0  0
    5.3239    9.4478    0.0000 C   0  0  0  0  0  0  0  0  0  0  0  0
    6.3024    9.6540    0.0000 C   0  0  0  0  0  0  0  0  0  0  0  0
    6.6596    7.9592    0.0000 C   0  0  0  0  0  0  0  0  0  0  0  0
    5.0132    8.4973    0.0000 C   0  0  0  0  0  0  0  0  0  0  0  0
    5.6811    7.7530    0.0000 C   0  0  0  0  0  0  0  0  0  0  0  0
    8.9272    9.3222    0.0000 C   0  0  0  0  0  0  0  0  0  0  0  0
    8.1550    8.1374    0.0000 C   0  0  0  0  0  0  0  0  0  0  0  0
    7.7425   10.0944    0.0000 C   0  0  0  0  0  0  0  0  0  0  0  0
    3.9882   10.9364    0.0000 C   0  0  0  0  0  0  0  0  0  0  0  0
    3.9117    9.5243    0.0000 C   0  0  0  0  0  0  0  0  0  0  0  0
    5.4003   10.8599    0.0000 C   0  0  0  0  0  0  0  0  0  0  0  0
    5.3704    6.8025    0.0000 C   0  0  0  0  0  0  0  0  0  0  0  0
    4.3919    6.5962    0.0000 C   0  0  0  0  0  0  0  0  0  0  0  0
    3.1350    5.3410    0.0000 C   0  0  0  0  0  0  0  0  0  0  0  0
    4.6648    4.8410    0.0000 C   0  0  0  0  0  0  0  0  0  0  0  0
    3.1350    4.3410    0.0000 C   0  0  0  0  0  0  0  0  0  0  0  0
    2.2690    5.8410    0.0000 C   0  0  0  0  0  0  0  0  0  0  0  0
    1.4030    5.3410    0.0000 C   0  0  0  0  0  0  0  0  0  0  0  0
    2.2690    3.8410    0.0000 C   0  0  0  0  0  0  0  0  0  0  0  0
    1.4030    4.3410    0.0000 C   0  0  0  0  0  0  0  0  0  0  0  0
    6.1648    3.9750    0.0000 C   0  0  0  0  0  0  0  0  0  0  0  0
    7.1648    3.9750    0.0000 C   0  0  0  0  0  0  0  0  0  0  0  0
    0.5369    5.8410    0.0000 C   0  0  0  0  0  0  0  0  0  0  0  0
    0.5369    3.8410    0.0000 C   0  0  0  0  0  0  0  0  0  0  0  0
    7.6648    3.1089    0.0000 C   0  0  0  0  0  0  0  0  0  0  0  0
    7.0736    7.4977    0.0000 H   0  0  0  0  0  0  0  0  0  0  0  0
    4.4066    8.3694    0.0000 H   0  0  0  0  0  0  0  0  0  0  0  0
    9.0551    8.7155    0.0000 H   0  0  0  0  0  0  0  0  0  0  0  0
    9.5339    9.4500    0.0000 H   0  0  0  0  0  0  0  0  0  0  0  0
    8.7994    9.9288    0.0000 H   0  0  0  0  0  0  0  0  0  0  0  0
    7.5483    8.0096    0.0000 H   0  0  0  0  0  0  0  0  0  0  0  0
    8.2828    7.5308    0.0000 H   0  0  0  0  0  0  0  0  0  0  0  0
    8.7616    8.2653    0.0000 H   0  0  0  0  0  0  0  0  0  0  0  0
    8.3492   10.2223    0.0000 H   0  0  0  0  0  0  0  0  0  0  0  0
    7.6147   10.7011    0.0000 H   0  0  0  0  0  0  0  0  0  0  0  0
    7.1358    9.9666    0.0000 H   0  0  0  0  0  0  0  0  0  0  0  0
    4.4497   11.3505    0.0000 H   0  0  0  0  0  0  0  0  0  0  0  0
    3.5741   11.3979    0.0000 H   0  0  0  0  0  0  0  0  0  0  0  0
    3.5267   10.5223    0.0000 H   0  0  0  0  0  0  0  0  0  0  0  0
    3.4977    9.9857    0.0000 H   0  0  0  0  0  0  0  0  0  0  0  0
    3.4503    9.1102    0.0000 H   0  0  0  0  0  0  0  0  0  0  0  0
    4.3258    9.0628    0.0000 H   0  0  0  0  0  0  0  0  0  0  0  0
    5.8144   10.3985    0.0000 H   0  0  0  0  0  0  0  0  0  0  0  0
    5.8618   11.2740    0.0000 H   0  0  0  0  0  0  0  0  0  0  0  0
    4.9863   11.3214    0.0000 H   0  0  0  0  0  0  0  0  0  0  0  0
    4.3713    7.2159    0.0000 H   0  0  0  0  0  0  0  0  0  0  0  0
    3.7781    6.6836    0.0000 H   0  0  0  0  0  0  0  0  0  0  0  0
    7.2197   10.7324    0.0000 H   0  0  0  0  0  0  0  0  0  0  0  0
    2.2690    6.4610    0.0000 H   0  0  0  0  0  0  0  0  0  0  0  0
    2.2690    3.2210    0.0000 H   0  0  0  0  0  0  0  0  0  0  0  0
    5.9748    5.3779    0.0000 H   0  0  0  0  0  0  0  0  0  0  0  0
    5.5822    3.7629    0.0000 H   0  0  0  0  0  0  0  0  0  0  0  0
    6.2725    3.3644    0.0000 H   0  0  0  0  0  0  0  0  0  0  0  0
    7.7474    4.1870    0.0000 H   0  0  0  0  0  0  0  0  0  0  0  0
    7.0572    4.5855    0.0000 H   0  0  0  0  0  0  0  0  0  0  0  0
    0.8469    6.3779    0.0000 H   0  0  0  0  0  0  0  0  0  0  0  0
    0.0000    6.1510    0.0000 H   0  0  0  0  0  0  0  0  0  0  0  0
    0.2269    5.3040    0.0000 H   0  0  0  0  0  0  0  0  0  0  0  0
    0.2269    4.3779    0.0000 H   0  0  0  0  0  0  0  0  0  0  0  0
    0.0000    3.5310    0.0000 H   0  0  0  0  0  0  0  0  0  0  0  0
    0.8469    3.3040    0.0000 H   0  0  0  0  0  0  0  0  0  0  0  0
    7.0822    2.8969    0.0000 H   0  0  0  0  0  0  0  0  0  0  0  0
    7.7725    2.4984    0.0000 H   0  0  0  0  0  0  0  0  0  0  0  0
    8.9748    2.5720    0.0000 H   0  0  0  0  0  0  0  0  0  0  0  0
    5.2670    0.0000    0.0000 H   0  0  0  0  0  0  0  0  0  0  0  0
  1 75  1  0  0  0  0
  2 12  1  0  0  0  0
  2 58  1  0  0  0  0
  3 22  2  0  0  0  0
  4 35  1  0  0  0  0
  4 74  1  0  0  0  0
  5 23  1  0  0  0  0
  5 24  1  0  0  0  0
  5 25  1  0  0  0  0
  6 25  2  0  0  0  0
  6 26  1  0  0  0  0
  7 25  1  0  0  0  0
  7 31  1  0  0  0  0
  7 61  1  0  0  0  0
  8 10  1  0  0  0  0
  8 16  1  0  0  0  0
  8 17  1  0  0  0  0
  8 18  1  0  0  0  0
  9 11  1  0  0  0  0
  9 19  1  0  0  0  0
  9 20  1  0  0  0  0
  9 21  1  0  0  0  0
 10 12  2  0  0  0  0
 10 13  1  0  0  0  0
 11 12  1  0  0  0  0
 11 14  2  0  0  0  0
 13 15  2  0  0  0  0
 13 36  1  0  0  0  0
 14 15  1  0  0  0  0
 14 37  1  0  0  0  0
 15 22  1  0  0  0  0
 16 38  1  0  0  0  0
 16 39  1  0  0  0  0
 16 40  1  0  0  0  0
 17 41  1  0  0  0  0
 17 42  1  0  0  0  0
 17 43  1  0  0  0  0
 18 44  1  0  0  0  0
 18 45  1  0  0  0  0
 18 46  1  0  0  0  0
 19 47  1  0  0  0  0
 19 48  1  0  0  0  0
 19 49  1  0  0  0  0
 20 50  1  0  0  0  0
 20 51  1  0  0  0  0
 20 52  1  0  0  0  0
 21 53  1  0  0  0  0
 21 54  1  0  0  0  0
 21 55  1  0  0  0  0
 22 23  1  0  0  0  0
 23 56  1  0  0  0  0
 23 57  1  0  0  0  0
 24 26  2  0  0  0  0
 24 27  1  0  0  0  0
 26 29  1  0  0  0  0
 27 28  2  0  0  0  0
 27 59  1  0  0  0  0
 28 30  1  0  0  0  0
 28 33  1  0  0  0  0
 29 30  2  0  0  0  0
 29 60  1  0  0  0  0
 30 34  1  0  0  0  0
 31 32  1  0  0  0  0
 31 62  1  0  0  0  0
 31 63  1  0  0  0  0
 32 35  1  0  0  0  0
 32 64  1  0  0  0  0
 32 65  1  0  0  0  0
 33 66  1  0  0  0  0
 33 67  1  0  0  0  0
 33 68  1  0  0  0  0
 34 69  1  0  0  0  0
 34 70  1  0  0  0  0
 34 71  1  0  0  0  0
 35 72  1  0  0  0  0
 35 73  1  0  0  0  0
M  END
> <PUBCHEM_COMPOUND_CID>
2858522

> <PUBCHEM_COMPOUND_CANONICALIZED>
1

> <PUBCHEM_CACTVS_COMPLEXITY>
661

> <PUBCHEM_CACTVS_HBOND_ACCEPTOR>
5

> <PUBCHEM_CACTVS_HBOND_DONOR>
4

> <PUBCHEM_CACTVS_ROTATABLE_BOND>
9

> <PUBCHEM_CACTVS_SUBSKEYS>
AAADcfB7MAAAEAAAAAAAAAAAAAAAAWAAAAAwYAAAAAAAAFgB9AAAHgAQCAAADgzhngYz1rfMEgCoA6RyZACCgC0lMqAB2KG8fNiIfrLCnbOUcQhu0BPI2aeYzODPqAACQAAYACBQAASAADAAQAAAAAAAAA==

> <PUBCHEM_IUPAC_OPENEYE_NAME>
1-(3,5-ditert-butyl-4-hydroxy-phenyl)-2-[2-(3-hydroxypropylamino)-5,6-dimethyl-benzimidazol-1-yl]ethanone;hydrobromide

> <PUBCHEM_IUPAC_CAS_NAME>
1-(3,5-ditert-butyl-4-hydroxyphenyl)-2-[2-(3-hydroxypropylamino)-5,6-dimethyl-1-benzimidazolyl]ethanone;hydrobromide

> <PUBCHEM_IUPAC_NAME>
1-(3,5-ditert-butyl-4-hydroxyphenyl)-2-[2-(3-hydroxypropylamino)-5,6-dimethylbenzimidazol-1-yl]ethanone;hydrobromide

> <PUBCHEM_IUPAC_SYSTEMATIC_NAME>
1-(3,5-ditert-butyl-4-oxidanyl-phenyl)-2-[5,6-dimethyl-2-(3-oxidanylpropylamino)benzimidazol-1-yl]ethanone;hydrobromide

> <PUBCHEM_IUPAC_TRADITIONAL_NAME>
1-(3,5-ditert-butyl-4-hydroxy-phenyl)-2-[2-(3-hydroxypropylamino)-5,6-dimethyl-benzimidazol-1-yl]ethanone;hydrobromide

> <PUBCHEM_IUPAC_INCHI>
InChI=1S/C28H39N3O3.BrH/c1-17-12-22-23(13-18(17)2)31(26(30-22)29-10-9-11-32)16-24(33)19-14-20(27(3,4)5)25(34)21(15-19)28(6,7)8;/h12-15,32,34H,9-11,16H2,1-8H3,(H,29,30);1H

> <PUBCHEM_IUPAC_INCHIKEY>
INQUHQQVARRKGV-UHFFFAOYSA-N

> <PUBCHEM_EXACT_MASS>
545.225

> <PUBCHEM_MOLECULAR_FORMULA>
C28H40BrN3O3

> <PUBCHEM_MOLECULAR_WEIGHT>
546.55

> <PUBCHEM_OPENEYE_CAN_SMILES>
CC1=CC2=C(C=C1C)N(C(=N2)NCCCO)CC(=O)C3=CC(=C(C(=C3)C(C)(C)C)O)C(C)(C)C.Br

> <PUBCHEM_OPENEYE_ISO_SMILES>
CC1=CC2=C(C=C1C)N(C(=N2)NCCCO)CC(=O)C3=CC(=C(C(=C3)C(C)(C)C)O)C(C)(C)C.Br

> <PUBCHEM_CACTVS_TPSA>
87.4

> <PUBCHEM_MONOISOTOPIC_WEIGHT>
545.225

> <PUBCHEM_TOTAL_CHARGE>
0

> <PUBCHEM_HEAVY_ATOM_COUNT>
35

> <PUBCHEM_ATOM_DEF_STEREO_COUNT>
0

> <PUBCHEM_ATOM_UDEF_STEREO_COUNT>
0

> <PUBCHEM_BOND_DEF_STEREO_COUNT>
0

> <PUBCHEM_BOND_UDEF_STEREO_COUNT>
0

> <PUBCHEM_ISOTOPIC_ATOM_COUNT>
0

> <PUBCHEM_COMPONENT_COUNT>
2

> <PUBCHEM_CACTVS_TAUTO_COUNT>
14

> <PUBCHEM_COORDINATE_TYPE>
1
5
255

> <PUBCHEM_BONDANNOTATIONS>
10  12  8
10  13  8
11  12  8
11  14  8
13  15  8
14  15  8
24  26  8
24  27  8
26  29  8
27  28  8
28  30  8
29  30  8
5  24  8
5  25  8
6  25  8
6  26  8

$$$$
46907798
  -OEChem-11021605012D

 86 91  0     1  0  0  0  0  0999 V2000
    8.4035    2.4348    0.0000 S   0  0  0  0  0  0  0  0  0  0  0  0
    5.5208    0.6449    0.0000 O   0  0  0  0  0  0  0  0  0  0  0  0
    2.2904    1.5688    0.0000 O   0  0  0  0  0  0  0  0  0  0  0  0
    2.5176    4.8728    0.0000 O   0  0  0  0  0  0  0  0  0  0  0  0
    8.4035    3.4348    0.0000 O   0  0  0  0  0  0  0  0  0  0  0  0
    8.4035    1.4348    0.0000 O   0  0  0  0  0  0  0  0  0  0  0  0
   11.4103    4.2108    0.0000 O   0  0  0  0  0  0  0  0  0  0  0  0
   12.4450    2.4188    0.0000 O   0  0  0  0  0  0  0  0  0  0  0  0
    5.0327   -2.7480    0.0000 O   0  0  0  0  0  0  0  0  0  0  0  0
    3.6730    2.4927    0.0000 N   0  0  0  0  0  0  0  0  0  0  0  0
    7.4035    2.4348    0.0000 N   0  0  3  0  0  0  0  0  0  0  0  0
    5.6770   -1.1402    0.0000 N   0  0  0  0  0  0  0  0  0  0  0  0
    6.7472   -2.5021    0.0000 N   0  0  0  0  0  0  0  0  0  0  0  0
    5.5208    2.4927    0.0000 C   0  0  1  0  0  0  0  0  0  0  0  0
    5.9035    1.5688    0.0000 C   0  0  2  0  0  0  0  0  0  0  0  0
    4.5969    2.8754    0.0000 C   0  0  0  0  0  0  0  0  0  0  0  0
    6.9035    1.5688    0.0000 C   0  0  0  0  0  0  0  0  0  0  0  0
    2.9659    3.1998    0.0000 C   0  0  2  0  0  0  0  0  0  0  0  0
    6.2279    3.1998    0.0000 C   0  0  0  0  0  0  0  0  0  0  0  0
    3.2904    1.5688    0.0000 C   0  0  0  0  0  0  0  0  0  0  0  0
    4.5969    0.2622    0.0000 C   0  0  0  0  0  0  0  0  0  0  0  0
    3.6730    0.6449    0.0000 C   0  0  0  0  0  0  0  0  0  0  0  0
    3.2247    4.1657    0.0000 C   0  0  0  0  0  0  0  0  0  0  0  0
    2.0000    2.9410    0.0000 C   0  0  0  0  0  0  0  0  0  0  0  0
    6.9035    3.3008    0.0000 C   0  0  0  0  0  0  0  0  0  0  0  0
    4.7488   -0.7683    0.0000 C   0  0  0  0  0  0  0  0  0  0  0  0
    2.8370    0.0236    0.0000 C   0  0  0  0  0  0  0  0  0  0  0  0
    9.4035    2.4348    0.0000 C   0  0  0  0  0  0  0  0  0  0  0  0
    3.9273   -1.4087    0.0000 C   0  0  0  0  0  0  0  0  0  0  0  0
    2.9650   -1.0101    0.0000 C   0  0  0  0  0  0  0  0  0  0  0  0
    9.9035    3.3008    0.0000 C   0  0  0  0  0  0  0  0  0  0  0  0
    9.9035    1.5688    0.0000 C   0  0  0  0  0  0  0  0  0  0  0  0
   10.9035    3.3008    0.0000 C   0  0  0  0  0  0  0  0  0  0  0  0
   10.9035    1.5688    0.0000 C   0  0  0  0  0  0  0  0  0  0  0  0
   11.4035    2.4348    0.0000 C   0  0  0  0  0  0  0  0  0  0  0  0
    5.8190   -2.1301    0.0000 C   0  0  0  0  0  0  0  0  0  0  0  0
   12.4519    4.2189    0.0000 C   0  0  0  0  0  0  0  0  0  0  0  0
   12.9727    3.3168    0.0000 C   0  0  0  0  0  0  0  0  0  0  0  0
    6.8892   -3.4920    0.0000 C   0  0  0  0  0  0  0  0  0  0  0  0
    7.8175   -3.8639    0.0000 C   0  0  0  0  0  0  0  0  0  0  0  0
    6.1030   -4.1098    0.0000 C   0  0  0  0  0  0  0  0  0  0  0  0
    7.9594   -4.8538    0.0000 C   0  0  0  0  0  0  0  0  0  0  0  0
    8.6264   -3.2078    0.0000 C   0  0  0  0  0  0  0  0  0  0  0  0
    6.2450   -5.0997    0.0000 C   0  0  0  0  0  0  0  0  0  0  0  0
    7.1732   -5.4717    0.0000 C   0  0  0  0  0  0  0  0  0  0  0  0
    8.9202   -5.2561    0.0000 C   0  0  0  0  0  0  0  0  0  0  0  0
    9.5963   -3.5878    0.0000 C   0  0  0  0  0  0  0  0  0  0  0  0
    9.7442   -4.6188    0.0000 C   0  0  0  0  0  0  0  0  0  0  0  0
    5.3998    3.1008    0.0000 H   0  0  0  0  0  0  0  0  0  0  0  0
    6.2479    1.0533    0.0000 H   0  0  0  0  0  0  0  0  0  0  0  0
    4.9743    3.3672    0.0000 H   0  0  0  0  0  0  0  0  0  0  0  0
    4.2195    3.3672    0.0000 H   0  0  0  0  0  0  0  0  0  0  0  0
    6.7958    0.9582    0.0000 H   0  0  0  0  0  0  0  0  0  0  0  0
    7.4861    1.3567    0.0000 H   0  0  0  0  0  0  0  0  0  0  0  0
    2.8055    2.6009    0.0000 H   0  0  0  0  0  0  0  0  0  0  0  0
    6.6663    2.7614    0.0000 H   0  0  0  0  0  0  0  0  0  0  0  0
    6.6663    3.6382    0.0000 H   0  0  0  0  0  0  0  0  0  0  0  0
    5.7895    3.6382    0.0000 H   0  0  0  0  0  0  0  0  0  0  0  0
    3.7867    3.9037    0.0000 H   0  0  0  0  0  0  0  0  0  0  0  0
    3.5804    4.6736    0.0000 H   0  0  0  0  0  0  0  0  0  0  0  0
    1.8395    3.5398    0.0000 H   0  0  0  0  0  0  0  0  0  0  0  0
    1.4011    2.7805    0.0000 H   0  0  0  0  0  0  0  0  0  0  0  0
    2.1605    2.3421    0.0000 H   0  0  0  0  0  0  0  0  0  0  0  0
    7.4404    3.6108    0.0000 H   0  0  0  0  0  0  0  0  0  0  0  0
    6.5935    3.8378    0.0000 H   0  0  0  0  0  0  0  0  0  0  0  0
    6.3665    2.9908    0.0000 H   0  0  0  0  0  0  0  0  0  0  0  0
    2.2670    0.2675    0.0000 H   0  0  0  0  0  0  0  0  0  0  0  0
    4.0106   -2.0231    0.0000 H   0  0  0  0  0  0  0  0  0  0  0  0
    2.4716   -1.3856    0.0000 H   0  0  0  0  0  0  0  0  0  0  0  0
    6.1645   -0.7571    0.0000 H   0  0  0  0  0  0  0  0  0  0  0  0
    9.5935    3.8378    0.0000 H   0  0  0  0  0  0  0  0  0  0  0  0
    2.6781    5.4717    0.0000 H   0  0  0  0  0  0  0  0  0  0  0  0
    9.5935    1.0319    0.0000 H   0  0  0  0  0  0  0  0  0  0  0  0
   11.2135    1.0319    0.0000 H   0  0  0  0  0  0  0  0  0  0  0  0
   13.0340    4.4324    0.0000 H   0  0  0  0  0  0  0  0  0  0  0  0
   12.3411    4.8289    0.0000 H   0  0  0  0  0  0  0  0  0  0  0  0
   13.4456    2.9158    0.0000 H   0  0  0  0  0  0  0  0  0  0  0  0
   13.4487    3.7141    0.0000 H   0  0  0  0  0  0  0  0  0  0  0  0
    7.2347   -2.1190    0.0000 H   0  0  0  0  0  0  0  0  0  0  0  0
    5.5275   -3.8792    0.0000 H   0  0  0  0  0  0  0  0  0  0  0  0
    8.5313   -2.5951    0.0000 H   0  0  0  0  0  0  0  0  0  0  0  0
    5.7575   -5.4828    0.0000 H   0  0  0  0  0  0  0  0  0  0  0  0
    7.2612   -6.0854    0.0000 H   0  0  0  0  0  0  0  0  0  0  0  0
    9.0012   -5.8708    0.0000 H   0  0  0  0  0  0  0  0  0  0  0  0
   10.0823   -3.2028    0.0000 H   0  0  0  0  0  0  0  0  0  0  0  0
   10.3188   -4.8517    0.0000 H   0  0  0  0  0  0  0  0  0  0  0  0
  1  5  2  0  0  0  0
  1  6  2  0  0  0  0
  1 11  1  0  0  0  0
  1 28  1  0  0  0  0
  2 15  1  0  0  0  0
  2 21  1  0  0  0  0
  3 20  2  0  0  0  0
  4 23  1  0  0  0  0
  4 72  1  0  0  0  0
  7 33  1  0  0  0  0
  7 37  1  0  0  0  0
  8 35  1  0  0  0  0
  8 38  1  0  0  0  0
  9 36  2  0  0  0  0
 10 16  1  0  0  0  0
 10 18  1  0  0  0  0
 10 20  1  0  0  0  0
 11 17  1  0  0  0  0
 11 25  1  0  0  0  0
 12 26  1  0  0  0  0
 12 36  1  0  0  0  0
 12 70  1  0  0  0  0
 13 36  1  0  0  0  0
 13 39  1  0  0  0  0
 13 79  1  0  0  0  0
 14 15  1  0  0  0  0
 14 16  1  0  0  0  0
 14 19  1  1  0  0  0
 14 49  1  0  0  0  0
 15 17  1  6  0  0  0
 15 50  1  0  0  0  0
 16 51  1  0  0  0  0
 16 52  1  0  0  0  0
 17 53  1  0  0  0  0
 17 54  1  0  0  0  0
 18 23  1  0  0  0  0
 18 24  1  1  0  0  0
 18 55  1  0  0  0  0
 19 56  1  0  0  0  0
 19 57  1  0  0  0  0
 19 58  1  0  0  0  0
 20 22  1  0  0  0  0
 21 22  2  0  0  0  0
 21 26  1  0  0  0  0
 22 27  1  0  0  0  0
 23 59  1  0  0  0  0
 23 60  1  0  0  0  0
 24 61  1  0  0  0  0
 24 62  1  0  0  0  0
 24 63  1  0  0  0  0
 25 64  1  0  0  0  0
 25 65  1  0  0  0  0
 25 66  1  0  0  0  0
 26 29  2  0  0  0  0
 27 30  2  0  0  0  0
 27 67  1  0  0  0  0
 28 31  2  0  0  0  0
 28 32  1  0  0  0  0
 29 30  1  0  0  0  0
 29 68  1  0  0  0  0
 30 69  1  0  0  0  0
 31 33  1  0  0  0  0
 31 71  1  0  0  0  0
 32 34  2  0  0  0  0
 32 73  1  0  0  0  0
 33 35  2  0  0  0  0
 34 35  1  0  0  0  0
 34 74  1  0  0  0  0
 37 38  1  0  0  0  0
 37 75  1  0  0  0  0
 37 76  1  0  0  0  0
 38 77  1  0  0  0  0
 38 78  1  0  0  0  0
 39 40  1  0  0  0  0
 39 41  2  0  0  0  0
 40 42  1  0  0  0  0
 40 43  2  0  0  0  0
 41 44  1  0  0  0  0
 41 80  1  0  0  0  0
 42 45  1  0  0  0  0
 42 46  2  0  0  0  0
 43 47  1  0  0  0  0
 43 81  1  0  0  0  0
 44 45  2  0  0  0  0
 44 82  1  0  0  0  0
 45 83  1  0  0  0  0
 46 48  1  0  0  0  0
 46 84  1  0  0  0  0
 47 48  2  0  0  0  0
 47 85  1  0  0  0  0
 48 86  1  0  0  0  0
M  END
> <PUBCHEM_COMPOUND_CID>
46907798

> <PUBCHEM_COMPOUND_CANONICALIZED>
1

> <PUBCHEM_CACTVS_COMPLEXITY>
1220

> <PUBCHEM_CACTVS_HBOND_ACCEPTOR>
9

> <PUBCHEM_CACTVS_HBOND_DONOR>
3

> <PUBCHEM_CACTVS_ROTATABLE_BOND>
8

> <PUBCHEM_CACTVS_SUBSKEYS>
AAADcfB/vABAAAAAAAAAAAAAAAAAAAAAAAA0YMGCAAAWAADRVAAAHgQQSAAADTzh2AYzx8PABgKIAiVSUHDCCBAlIgAIiBkP7MiPNjbEtZuHeWru9hPa6aecyKCOgIAARAAaUAABAACIADSgAAAAAAAAAA==

> <PUBCHEM_IUPAC_OPENEYE_NAME>
1-[(2R,3R)-2-[[2,3-dihydro-1,4-benzodioxin-6-ylsulfonyl(methyl)amino]methyl]-5-[(1S)-2-hydroxy-1-methyl-ethyl]-3-methyl-6-oxo-3,4-dihydro-2H-1,5-benzoxazocin-10-yl]-3-(1-naphthyl)urea

> <PUBCHEM_IUPAC_CAS_NAME>
1-[(2R,3R)-2-[[2,3-dihydro-1,4-benzodioxin-6-ylsulfonyl(methyl)amino]methyl]-5-[(2S)-1-hydroxypropan-2-yl]-3-methyl-6-oxo-3,4-dihydro-2H-1,5-benzoxazocin-10-yl]-3-(1-naphthalenyl)urea

> <PUBCHEM_IUPAC_NAME>
1-[(2R,3R)-2-[[2,3-dihydro-1,4-benzodioxin-6-ylsulfonyl(methyl)amino]methyl]-5-[(2S)-1-hydroxypropan-2-yl]-3-methyl-6-oxo-3,4-dihydro-2H-1,5-benzoxazocin-10-yl]-3-naphthalen-1-ylurea

> <PUBCHEM_IUPAC_SYSTEMATIC_NAME>
1-[(2R,3R)-2-[[2,3-dihydro-1,4-benzodioxin-6-ylsulfonyl(methyl)amino]methyl]-3-methyl-6-oxidanylidene-5-[(2S)-1-oxidanylpropan-2-yl]-3,4-dihydro-2H-1,5-benzoxazocin-10-yl]-3-naphthalen-1-yl-urea

> <PUBCHEM_IUPAC_TRADITIONAL_NAME>
1-[(2R,3R)-2-[[2,3-dihydro-1,4-benzodioxin-6-ylsulfonyl(methyl)amino]methyl]-5-[(1S)-2-hydroxy-1-methyl-ethyl]-6-keto-3-methyl-3,4-dihydro-2H-1,5-benzoxazocin-10-yl]-3-(1-naphthyl)urea

> <PUBCHEM_IUPAC_INCHI>
InChI=1S/C35H38N4O8S/c1-22-19-39(23(2)21-40)34(41)27-11-7-13-29(37-35(42)36-28-12-6-9-24-8-4-5-10-26(24)28)33(27)47-32(22)20-38(3)48(43,44)25-14-15-30-31(18-25)46-17-16-45-30/h4-15,18,22-23,32,40H,16-17,19-21H2,1-3H3,(H2,36,37,42)/t22-,23+,32+/m1/s1

> <PUBCHEM_IUPAC_INCHIKEY>
YDFFDCBBGWXONN-MODXFSQWSA-N

> <PUBCHEM_XLOGP3_AA>
4.1

> <PUBCHEM_EXACT_MASS>
674.241

> <PUBCHEM_MOLECULAR_FORMULA>
C35H38N4O8S

> <PUBCHEM_MOLECULAR_WEIGHT>
674.769

> <PUBCHEM_OPENEYE_CAN_SMILES>
CC1CN(C(=O)C2=C(C(=CC=C2)NC(=O)NC3=CC=CC4=CC=CC=C43)OC1CN(C)S(=O)(=O)C5=CC6=C(C=C5)OCCO6)C(C)CO

> <PUBCHEM_OPENEYE_ISO_SMILES>
C[C@@H]1CN(C(=O)C2=C(C(=CC=C2)NC(=O)NC3=CC=CC4=CC=CC=C43)O[C@H]1CN(C)S(=O)(=O)C5=CC6=C(C=C5)OCCO6)[C@@H](C)CO

> <PUBCHEM_CACTVS_TPSA>
155

> <PUBCHEM_MONOISOTOPIC_WEIGHT>
674.241

> <PUBCHEM_TOTAL_CHARGE>
0

> <PUBCHEM_HEAVY_ATOM_COUNT>
48

> <PUBCHEM_ATOM_DEF_STEREO_COUNT>
3

> <PUBCHEM_ATOM_UDEF_STEREO_COUNT>
0

> <PUBCHEM_BOND_DEF_STEREO_COUNT>
0

> <PUBCHEM_BOND_UDEF_STEREO_COUNT>
0

> <PUBCHEM_ISOTOPIC_ATOM_COUNT>
0

> <PUBCHEM_COMPONENT_COUNT>
1

> <PUBCHEM_CACTVS_TAUTO_COUNT>
3

> <PUBCHEM_COORDINATE_TYPE>
1
5
255

> <PUBCHEM_BONDANNOTATIONS>
14  19  5
15  17  6
18  24  5
21  22  8
21  26  8
22  27  8
26  29  8
27  30  8
28  31  8
28  32  8
29  30  8
31  33  8
32  34  8
33  35  8
34  35  8
39  40  8
39  41  8
40  42  8
40  43  8
41  44  8
42  45  8
42  46  8
43  47  8
44  45  8
46  48  8
47  48  8

$$$$
6445562
  -OEChem-11021605012D

 56 58  0     0  0  0  0  0  0999 V2000
   12.3739   -3.7772    0.0000 Cl  0  0  0  0  0  0  0  0  0  0  0  0
   14.1174   -2.7973    0.0000 F   0  0  0  0  0  0  0  0  0  0  0  0
    7.1962    2.2772    0.0000 O   0  0  0  0  0  0  0  0  0  0  0  0
    6.3301    1.7772    0.0000 O   0  0  0  0  0  0  0  0  0  0  0  0
   10.6766   -0.7574    0.0000 N   0  0  0  0  0  0  0  0  0  0  0  0
    7.1962    0.2772    0.0000 N   0  0  0  0  0  0  0  0  0  0  0  0
   10.6882    2.3119    0.0000 N   0  0  0  0  0  0  0  0  0  0  0  0
    2.8660    0.7772    0.0000 N   0  0  0  0  0  0  0  0  0  0  0  0
   13.3224   -0.2503    0.0000 N   0  0  0  0  0  0  0  0  0  0  0  0
    9.7942    0.7772    0.0000 C   0  0  0  0  0  0  0  0  0  0  0  0
    9.7942    1.7772    0.0000 C   0  0  0  0  0  0  0  0  0  0  0  0
   10.6882    0.2426    0.0000 C   0  0  0  0  0  0  0  0  0  0  0  0
    8.0622    0.7772    0.0000 C   0  0  0  0  0  0  0  0  0  0  0  0
    8.9282    0.2772    0.0000 C   0  0  0  0  0  0  0  0  0  0  0  0
    8.0622    1.7772    0.0000 C   0  0  0  0  0  0  0  0  0  0  0  0
    8.9282    2.2772    0.0000 C   0  0  0  0  0  0  0  0  0  0  0  0
   11.5942    0.7564    0.0000 C   0  0  0  0  0  0  0  0  0  0  0  0
   11.5942    1.7980    0.0000 C   0  0  0  0  0  0  0  0  0  0  0  0
   11.5368   -1.2674    0.0000 C   0  0  0  0  0  0  0  0  0  0  0  0
    6.3301    0.7772    0.0000 C   0  0  0  0  0  0  0  0  0  0  0  0
    7.1962    3.2772    0.0000 C   0  0  0  0  0  0  0  0  0  0  0  0
    3.7320    0.2772    0.0000 C   0  0  0  0  0  0  0  0  0  0  0  0
   11.5252   -2.2673    0.0000 C   0  0  0  0  0  0  0  0  0  0  0  0
   12.4085   -0.7774    0.0000 C   0  0  0  0  0  0  0  0  0  0  0  0
    5.4641    0.2772    0.0000 C   0  0  0  0  0  0  0  0  0  0  0  0
    4.5981    0.7772    0.0000 C   0  0  0  0  0  0  0  0  0  0  0  0
   12.4583    0.2531    0.0000 C   0  0  0  0  0  0  0  0  0  0  0  0
   12.3854   -2.7773    0.0000 C   0  0  0  0  0  0  0  0  0  0  0  0
   13.2687   -1.2874    0.0000 C   0  0  0  0  0  0  0  0  0  0  0  0
    6.3301    3.7772    0.0000 C   0  0  0  0  0  0  0  0  0  0  0  0
   13.2572   -2.2873    0.0000 C   0  0  0  0  0  0  0  0  0  0  0  0
    2.0000    0.2772    0.0000 C   0  0  0  0  0  0  0  0  0  0  0  0
    2.8660    1.7772    0.0000 C   0  0  0  0  0  0  0  0  0  0  0  0
    8.9282   -0.3428    0.0000 H   0  0  0  0  0  0  0  0  0  0  0  0
    8.9282    2.8972    0.0000 H   0  0  0  0  0  0  0  0  0  0  0  0
   10.1361   -1.0612    0.0000 H   0  0  0  0  0  0  0  0  0  0  0  0
    7.1962   -0.3428    0.0000 H   0  0  0  0  0  0  0  0  0  0  0  0
   12.1300    2.1101    0.0000 H   0  0  0  0  0  0  0  0  0  0  0  0
    7.8067    3.1696    0.0000 H   0  0  0  0  0  0  0  0  0  0  0  0
    7.4082    3.8598    0.0000 H   0  0  0  0  0  0  0  0  0  0  0  0
    3.3335   -0.1977    0.0000 H   0  0  0  0  0  0  0  0  0  0  0  0
    4.1306   -0.1977    0.0000 H   0  0  0  0  0  0  0  0  0  0  0  0
   10.9847   -2.5711    0.0000 H   0  0  0  0  0  0  0  0  0  0  0  0
   12.4157   -0.1575    0.0000 H   0  0  0  0  0  0  0  0  0  0  0  0
    5.4641   -0.3428    0.0000 H   0  0  0  0  0  0  0  0  0  0  0  0
    4.5981    1.3972    0.0000 H   0  0  0  0  0  0  0  0  0  0  0  0
   13.8092   -0.9836    0.0000 H   0  0  0  0  0  0  0  0  0  0  0  0
    6.6401    4.3142    0.0000 H   0  0  0  0  0  0  0  0  0  0  0  0
    5.7932    4.0872    0.0000 H   0  0  0  0  0  0  0  0  0  0  0  0
    6.0201    3.2403    0.0000 H   0  0  0  0  0  0  0  0  0  0  0  0
    1.6900    0.8141    0.0000 H   0  0  0  0  0  0  0  0  0  0  0  0
    1.4631   -0.0328    0.0000 H   0  0  0  0  0  0  0  0  0  0  0  0
    2.3100   -0.2597    0.0000 H   0  0  0  0  0  0  0  0  0  0  0  0
    3.4860    1.7772    0.0000 H   0  0  0  0  0  0  0  0  0  0  0  0
    2.8660    2.3972    0.0000 H   0  0  0  0  0  0  0  0  0  0  0  0
    2.2460    1.7772    0.0000 H   0  0  0  0  0  0  0  0  0  0  0  0
  1 28  1  0  0  0  0
  2 31  1  0  0  0  0
  3 15  1  0  0  0  0
  3 21  1  0  0  0  0
  4 20  2  0  0  0  0
  5 12  1  0  0  0  0
  5 19  1  0  0  0  0
  5 36  1  0  0  0  0
  6 13  1  0  0  0  0
  6 20  1  0  0  0  0
  6 37  1  0  0  0  0
  7 11  1  0  0  0  0
  7 18  2  0  0  0  0
  8 22  1  0  0  0  0
  8 32  1  0  0  0  0
  8 33  1  0  0  0  0
  9 27  3  0  0  0  0
 10 11  1  0  0  0  0
 10 12  1  0  0  0  0
 10 14  2  0  0  0  0
 11 16  2  0  0  0  0
 12 17  2  0  0  0  0
 13 14  1  0  0  0  0
 13 15  2  0  0  0  0
 14 34  1  0  0  0  0
 15 16  1  0  0  0  0
 16 35  1  0  0  0  0
 17 18  1  0  0  0  0
 17 27  1  0  0  0  0
 18 38  1  0  0  0  0
 19 23  2  0  0  0  0
 19 24  1  0  0  0  0
 20 25  1  0  0  0  0
 21 30  1  0  0  0  0
 21 39  1  0  0  0  0
 21 40  1  0  0  0  0
 22 26  1  0  0  0  0
 22 41  1  0  0  0  0
 22 42  1  0  0  0  0
 23 28  1  0  0  0  0
 23 43  1  0  0  0  0
 24 29  2  0  0  0  0
 24 44  1  0  0  0  0
 25 26  2  0  0  0  0
 25 45  1  0  0  0  0
 26 46  1  0  0  0  0
 28 31  2  0  0  0  0
 29 31  1  0  0  0  0
 29 47  1  0  0  0  0
 30 48  1  0  0  0  0
 30 49  1  0  0  0  0
 30 50  1  0  0  0  0
 32 51  1  0  0  0  0
 32 52  1  0  0  0  0
 32 53  1  0  0  0  0
 33 54  1  0  0  0  0
 33 55  1  0  0  0  0
 33 56  1  0  0  0  0
M  END
> <PUBCHEM_COMPOUND_CID>
6445562

> <PUBCHEM_COMPOUND_CANONICALIZED>
1

> <PUBCHEM_CACTVS_COMPLEXITY>
729

> <PUBCHEM_CACTVS_HBOND_ACCEPTOR>
7

> <PUBCHEM_CACTVS_HBOND_DONOR>
2

> <PUBCHEM_CACTVS_ROTATABLE_BOND>
8

> <PUBCHEM_CACTVS_SUBSKEYS>
AAADceB7sQAEAAAAAAAAAAAAAAAAAAAAAAA8YIAAAAAAAACx9AAAHwIQAAAADA7hni4+xvPIFAC4BzV3VACiiCAxJyAI2CA/btgOpuLF89uHPCjm1BnY6Y+Q0OMOIACAQgICEABAAQCEBAQgAAAAAAAAAA==

> <PUBCHEM_IUPAC_OPENEYE_NAME>
(E)-N-[4-(3-chloro-4-fluoro-anilino)-3-cyano-7-ethoxy-6-quinolyl]-4-(dimethylamino)but-2-enamide

> <PUBCHEM_IUPAC_CAS_NAME>
(E)-N-[4-(3-chloro-4-fluoroanilino)-3-cyano-7-ethoxy-6-quinolinyl]-4-(dimethylamino)-2-butenamide

> <PUBCHEM_IUPAC_NAME>
(E)-N-[4-(3-chloro-4-fluoroanilino)-3-cyano-7-ethoxyquinolin-6-yl]-4-(dimethylamino)but-2-enamide

> <PUBCHEM_IUPAC_SYSTEMATIC_NAME>
(E)-N-[4-[(3-chloranyl-4-fluoranyl-phenyl)amino]-3-cyano-7-ethoxy-quinolin-6-yl]-4-(dimethylamino)but-2-enamide

> <PUBCHEM_IUPAC_TRADITIONAL_NAME>
(E)-N-[4-(3-chloro-4-fluoro-anilino)-3-cyano-7-ethoxy-6-quinolyl]-4-(dimethylamino)but-2-enamide

> <PUBCHEM_IUPAC_INCHI>
InChI=1S/C24H23ClFN5O2/c1-4-33-22-12-20-17(11-21(22)30-23(32)6-5-9-31(2)3)24(15(13-27)14-28-20)29-16-7-8-19(26)18(25)10-16/h5-8,10-12,14H,4,9H2,1-3H3,(H,28,29)(H,30,32)/b6-5+

> <PUBCHEM_IUPAC_INCHIKEY>
WVUNYSQLFKLYNI-AATRIKPKSA-N

> <PUBCHEM_XLOGP3_AA>
4.5

> <PUBCHEM_EXACT_MASS>
467.152

> <PUBCHEM_MOLECULAR_FORMULA>
C24H23ClFN5O2

> <PUBCHEM_MOLECULAR_WEIGHT>
467.929

> <PUBCHEM_OPENEYE_CAN_SMILES>
CCOC1=C(C=C2C(=C1)N=CC(=C2NC3=CC(=C(C=C3)F)Cl)C#N)NC(=O)C=CCN(C)C

> <PUBCHEM_OPENEYE_ISO_SMILES>
CCOC1=C(C=C2C(=C1)N=CC(=C2NC3=CC(=C(C=C3)F)Cl)C#N)NC(=O)/C=C/CN(C)C

> <PUBCHEM_CACTVS_TPSA>
90.3

> <PUBCHEM_MONOISOTOPIC_WEIGHT>
467.152

> <PUBCHEM_TOTAL_CHARGE>
0

> <PUBCHEM_HEAVY_ATOM_COUNT>
33

> <PUBCHEM_ATOM_DEF_STEREO_COUNT>
0

> <PUBCHEM_ATOM_UDEF_STEREO_COUNT>
0

> <PUBCHEM_BOND_DEF_STEREO_COUNT>
1

> <PUBCHEM_BOND_UDEF_STEREO_COUNT>
0

> <PUBCHEM_ISOTOPIC_ATOM_COUNT>
0

> <PUBCHEM_COMPONENT_COUNT>
1

> <PUBCHEM_CACTVS_TAUTO_COUNT>
6

> <PUBCHEM_COORDINATE_TYPE>
1
5
255

> <PUBCHEM_BONDANNOTATIONS>
10  11  8
10  12  8
10  14  8
11  16  8
12  17  8
13  14  8
13  15  8
15  16  8
17  18  8
19  23  8
19  24  8
23  28  8
24  29  8
28  31  8
29  31  8
7  11  8
7  18  8

$$$$
151194
  -OEChem-11021605012D

 40 43  0     0  0  0  0  0  0999 V2000
    2.0000   -4.0000    0.0000 Cl  0  0  0  0  0  0  0  0  0  0  0  0
    5.4641   -2.0000    0.0000 N   0  0  0  0  0  0  0  0  0  0  0  0
    4.5981    0.5000    0.0000 N   0  0  0  0  0  0  0  0  0  0  0  0
    4.5981   -0.5000    0.0000 N   0  0  0  0  0  0  0  0  0  0  0  0
    2.8660    3.5000    0.0000 N   0  0  0  0  0  0  0  0  0  0  0  0
    6.3301    0.5000    0.0000 C   0  0  0  0  0  0  0  0  0  0  0  0
    6.3301   -0.5000    0.0000 C   0  0  0  0  0  0  0  0  0  0  0  0
    5.4641    1.0000    0.0000 C   0  0  0  0  0  0  0  0  0  0  0  0
    5.4641    2.0000    0.0000 C   0  0  0  0  0  0  0  0  0  0  0  0
    5.4641   -1.0000    0.0000 C   0  0  0  0  0  0  0  0  0  0  0  0
    7.2241    1.0347    0.0000 C   0  0  0  0  0  0  0  0  0  0  0  0
    4.5981    2.5000    0.0000 C   0  0  0  0  0  0  0  0  0  0  0  0
    7.2241   -1.0347    0.0000 C   0  0  0  0  0  0  0  0  0  0  0  0
    8.1301    0.5208    0.0000 C   0  0  0  0  0  0  0  0  0  0  0  0
    8.1301   -0.5208    0.0000 C   0  0  0  0  0  0  0  0  0  0  0  0
    4.5981   -2.5000    0.0000 C   0  0  0  0  0  0  0  0  0  0  0  0
    3.7320    2.0000    0.0000 C   0  0  0  0  0  0  0  0  0  0  0  0
    4.5981    3.5000    0.0000 C   0  0  0  0  0  0  0  0  0  0  0  0
    4.5981   -3.5000    0.0000 C   0  0  0  0  0  0  0  0  0  0  0  0
    3.7320   -2.0000    0.0000 C   0  0  0  0  0  0  0  0  0  0  0  0
    2.8660    2.5000    0.0000 C   0  0  0  0  0  0  0  0  0  0  0  0
    3.7320    4.0000    0.0000 C   0  0  0  0  0  0  0  0  0  0  0  0
    3.7320   -4.0000    0.0000 C   0  0  0  0  0  0  0  0  0  0  0  0
    2.8660   -2.5000    0.0000 C   0  0  0  0  0  0  0  0  0  0  0  0
    2.8660   -3.5000    0.0000 C   0  0  0  0  0  0  0  0  0  0  0  0
    6.0747    1.8923    0.0000 H   0  0  0  0  0  0  0  0  0  0  0  0
    5.6762    2.5826    0.0000 H   0  0  0  0  0  0  0  0  0  0  0  0
    7.2169    1.6546    0.0000 H   0  0  0  0  0  0  0  0  0  0  0  0
    7.2169   -1.6546    0.0000 H   0  0  0  0  0  0  0  0  0  0  0  0
    6.0010   -2.3100    0.0000 H   0  0  0  0  0  0  0  0  0  0  0  0
    8.6659    0.8329    0.0000 H   0  0  0  0  0  0  0  0  0  0  0  0
    8.6659   -0.8329    0.0000 H   0  0  0  0  0  0  0  0  0  0  0  0
    3.7320    1.3800    0.0000 H   0  0  0  0  0  0  0  0  0  0  0  0
    5.1350    3.8100    0.0000 H   0  0  0  0  0  0  0  0  0  0  0  0
    5.1350   -3.8100    0.0000 H   0  0  0  0  0  0  0  0  0  0  0  0
    3.7320   -1.3800    0.0000 H   0  0  0  0  0  0  0  0  0  0  0  0
    2.3291    2.1900    0.0000 H   0  0  0  0  0  0  0  0  0  0  0  0
    3.7320    4.6200    0.0000 H   0  0  0  0  0  0  0  0  0  0  0  0
    3.7320   -4.6200    0.0000 H   0  0  0  0  0  0  0  0  0  0  0  0
    2.3291   -2.1900    0.0000 H   0  0  0  0  0  0  0  0  0  0  0  0
  1 25  1  0  0  0  0
  2 10  1  0  0  0  0
  2 16  1  0  0  0  0
  2 30  1  0  0  0  0
  3  4  1  0  0  0  0
  3  8  2  0  0  0  0
  4 10  2  0  0  0  0
  5 21  2  0  0  0  0
  5 22  1  0  0  0  0
  6  7  1  0  0  0  0
  6  8  1  0  0  0  0
  6 11  2  0  0  0  0
  7 10  1  0  0  0  0
  7 13  2  0  0  0  0
  8  9  1  0  0  0  0
  9 12  1  0  0  0  0
  9 26  1  0  0  0  0
  9 27  1  0  0  0  0
 11 14  1  0  0  0  0
 11 28  1  0  0  0  0
 12 17  2  0  0  0  0
 12 18  1  0  0  0  0
 13 15  1  0  0  0  0
 13 29  1  0  0  0  0
 14 15  2  0  0  0  0
 14 31  1  0  0  0  0
 15 32  1  0  0  0  0
 16 19  2  0  0  0  0
 16 20  1  0  0  0  0
 17 21  1  0  0  0  0
 17 33  1  0  0  0  0
 18 22  2  0  0  0  0
 18 34  1  0  0  0  0
 19 23  1  0  0  0  0
 19 35  1  0  0  0  0
 20 24  2  0  0  0  0
 20 36  1  0  0  0  0
 21 37  1  0  0  0  0
 22 38  1  0  0  0  0
 23 25  2  0  0  0  0
 23 39  1  0  0  0  0
 24 25  1  0  0  0  0
 24 40  1  0  0  0  0
M  END
> <PUBCHEM_COMPOUND_CID>
151194

> <PUBCHEM_COMPOUND_CANONICALIZED>
1

> <PUBCHEM_CACTVS_COMPLEXITY>
407

> <PUBCHEM_CACTVS_HBOND_ACCEPTOR>
4

> <PUBCHEM_CACTVS_HBOND_DONOR>
1

> <PUBCHEM_CACTVS_ROTATABLE_BOND>
4

> <PUBCHEM_CACTVS_SUBSKEYS>
AAADccB7gAAEAAAAAAAAAAAAAAAAAAAAAAA8eIEAAAAAAACx/AAAHAIYAAAADArBHiQ98NLIEACiAzZnZACShCIxByAd2CA4ZpiIIOLBm5GEoAhwmALIyCcQgMAOgABAAAAQAAAAAIAAACAAAAAAAAAAAA==

> <PUBCHEM_IUPAC_OPENEYE_NAME>
N-(4-chlorophenyl)-4-(4-pyridylmethyl)phthalazin-1-amine

> <PUBCHEM_IUPAC_CAS_NAME>
N-(4-chlorophenyl)-4-(pyridin-4-ylmethyl)-1-phthalazinamine

> <PUBCHEM_IUPAC_NAME>
N-(4-chlorophenyl)-4-(pyridin-4-ylmethyl)phthalazin-1-amine

> <PUBCHEM_IUPAC_SYSTEMATIC_NAME>
N-(4-chlorophenyl)-4-(pyridin-4-ylmethyl)phthalazin-1-amine

> <PUBCHEM_IUPAC_TRADITIONAL_NAME>
(4-chlorophenyl)-[4-(4-pyridylmethyl)phthalazin-1-yl]amine

> <PUBCHEM_IUPAC_INCHI>
InChI=1S/C20H15ClN4/c21-15-5-7-16(8-6-15)23-20-18-4-2-1-3-17(18)19(24-25-20)13-14-9-11-22-12-10-14/h1-12H,13H2,(H,23,25)

> <PUBCHEM_IUPAC_INCHIKEY>
YCOYDOIWSSHVCK-UHFFFAOYSA-N

> <PUBCHEM_XLOGP3_AA>
4.5

> <PUBCHEM_EXACT_MASS>
346.099

> <PUBCHEM_MOLECULAR_FORMULA>
C20H15ClN4

> <PUBCHEM_MOLECULAR_WEIGHT>
346.818

> <PUBCHEM_OPENEYE_CAN_SMILES>
C1=CC=C2C(=C1)C(=NN=C2NC3=CC=C(C=C3)Cl)CC4=CC=NC=C4

> <PUBCHEM_OPENEYE_ISO_SMILES>
C1=CC=C2C(=C1)C(=NN=C2NC3=CC=C(C=C3)Cl)CC4=CC=NC=C4

> <PUBCHEM_CACTVS_TPSA>
50.7

> <PUBCHEM_MONOISOTOPIC_WEIGHT>
346.099

> <PUBCHEM_TOTAL_CHARGE>
0

> <PUBCHEM_HEAVY_ATOM_COUNT>
25

> <PUBCHEM_ATOM_DEF_STEREO_COUNT>
0

> <PUBCHEM_ATOM_UDEF_STEREO_COUNT>
0

> <PUBCHEM_BOND_DEF_STEREO_COUNT>
0

> <PUBCHEM_BOND_UDEF_STEREO_COUNT>
0

> <PUBCHEM_ISOTOPIC_ATOM_COUNT>
0

> <PUBCHEM_COMPONENT_COUNT>
1

> <PUBCHEM_CACTVS_TAUTO_COUNT>
2

> <PUBCHEM_COORDINATE_TYPE>
1
5
255

> <PUBCHEM_BONDANNOTATIONS>
11  14  8
12  17  8
12  18  8
13  15  8
14  15  8
16  19  8
16  20  8
17  21  8
18  22  8
19  23  8
20  24  8
23  25  8
24  25  8
3  4  8
3  8  8
4  10  8
5  21  8
5  22  8
6  11  8
6  7  8
6  8  8
7  10  8
7  13  8

$$$$
5291
  -OEChem-11021605012D

 68 72  0     0  0  0  0  0  0999 V2000
    7.1962   -0.5000    0.0000 O   0  0  0  0  0  0  0  0  0  0  0  0
    2.8660   -3.0000    0.0000 N   0  0  0  0  0  0  0  0  0  0  0  0
    2.8660   -5.0000    0.0000 N   0  0  0  0  0  0  0  0  0  0  0  0
    6.3301    1.0000    0.0000 N   0  0  0  0  0  0  0  0  0  0  0  0
    8.0622    4.0000    0.0000 N   0  0  0  0  0  0  0  0  0  0  0  0
    6.3301    4.0000    0.0000 N   0  0  0  0  0  0  0  0  0  0  0  0
    7.1962    5.5000    0.0000 N   0  0  0  0  0  0  0  0  0  0  0  0
    2.8660    4.0000    0.0000 N   0  0  0  0  0  0  0  0  0  0  0  0
    3.7320   -3.5000    0.0000 C   0  0  0  0  0  0  0  0  0  0  0  0
    2.0000   -3.5000    0.0000 C   0  0  0  0  0  0  0  0  0  0  0  0
    3.7320   -4.5000    0.0000 C   0  0  0  0  0  0  0  0  0  0  0  0
    2.0000   -4.5000    0.0000 C   0  0  0  0  0  0  0  0  0  0  0  0
    2.8660   -2.0000    0.0000 C   0  0  0  0  0  0  0  0  0  0  0  0
    2.8660   -6.0000    0.0000 C   0  0  0  0  0  0  0  0  0  0  0  0
    3.7320   -1.5000    0.0000 C   0  0  0  0  0  0  0  0  0  0  0  0
    4.5981   -2.0000    0.0000 C   0  0  0  0  0  0  0  0  0  0  0  0
    3.7320   -0.5000    0.0000 C   0  0  0  0  0  0  0  0  0  0  0  0
    5.4641   -1.5000    0.0000 C   0  0  0  0  0  0  0  0  0  0  0  0
    4.5981    0.0000    0.0000 C   0  0  0  0  0  0  0  0  0  0  0  0
    5.4641   -0.5000    0.0000 C   0  0  0  0  0  0  0  0  0  0  0  0
    6.3301    0.0000    0.0000 C   0  0  0  0  0  0  0  0  0  0  0  0
    7.1962    1.5000    0.0000 C   0  0  0  0  0  0  0  0  0  0  0  0
    8.0622    3.0000    0.0000 C   0  0  0  0  0  0  0  0  0  0  0  0
    7.1962    2.5000    0.0000 C   0  0  0  0  0  0  0  0  0  0  0  0
    8.9282    2.5000    0.0000 C   0  0  0  0  0  0  0  0  0  0  0  0
    8.0622    1.0000    0.0000 C   0  0  0  0  0  0  0  0  0  0  0  0
    8.9282    1.5000    0.0000 C   0  0  0  0  0  0  0  0  0  0  0  0
    9.7942    3.0000    0.0000 C   0  0  0  0  0  0  0  0  0  0  0  0
    7.1962    4.5000    0.0000 C   0  0  0  0  0  0  0  0  0  0  0  0
    5.4641    4.5000    0.0000 C   0  0  0  0  0  0  0  0  0  0  0  0
    4.5981    4.0000    0.0000 C   0  0  0  0  0  0  0  0  0  0  0  0
    5.4641    5.5000    0.0000 C   0  0  0  0  0  0  0  0  0  0  0  0
    6.3301    6.0000    0.0000 C   0  0  0  0  0  0  0  0  0  0  0  0
    4.5981    3.0000    0.0000 C   0  0  0  0  0  0  0  0  0  0  0  0
    3.7320    4.5000    0.0000 C   0  0  0  0  0  0  0  0  0  0  0  0
    3.7320    2.5000    0.0000 C   0  0  0  0  0  0  0  0  0  0  0  0
    2.8660    3.0000    0.0000 C   0  0  0  0  0  0  0  0  0  0  0  0
    1.7880   -2.9174    0.0000 H   0  0  0  0  0  0  0  0  0  0  0  0
    1.3894   -3.6077    0.0000 H   0  0  0  0  0  0  0  0  0  0  0  0
    4.3426   -3.6077    0.0000 H   0  0  0  0  0  0  0  0  0  0  0  0
    3.9441   -2.9174    0.0000 H   0  0  0  0  0  0  0  0  0  0  0  0
    1.3894   -4.3923    0.0000 H   0  0  0  0  0  0  0  0  0  0  0  0
    1.7880   -5.0826    0.0000 H   0  0  0  0  0  0  0  0  0  0  0  0
    3.9441   -5.0826    0.0000 H   0  0  0  0  0  0  0  0  0  0  0  0
    4.3426   -4.3923    0.0000 H   0  0  0  0  0  0  0  0  0  0  0  0
    2.6540   -1.4174    0.0000 H   0  0  0  0  0  0  0  0  0  0  0  0
    2.2554   -2.1077    0.0000 H   0  0  0  0  0  0  0  0  0  0  0  0
    2.2460   -6.0000    0.0000 H   0  0  0  0  0  0  0  0  0  0  0  0
    2.8660   -6.6200    0.0000 H   0  0  0  0  0  0  0  0  0  0  0  0
    3.4860   -6.0000    0.0000 H   0  0  0  0  0  0  0  0  0  0  0  0
    4.5981   -2.6200    0.0000 H   0  0  0  0  0  0  0  0  0  0  0  0
    3.1951   -0.1900    0.0000 H   0  0  0  0  0  0  0  0  0  0  0  0
    6.0010   -1.8100    0.0000 H   0  0  0  0  0  0  0  0  0  0  0  0
    4.5981    0.6200    0.0000 H   0  0  0  0  0  0  0  0  0  0  0  0
    5.7932    1.3100    0.0000 H   0  0  0  0  0  0  0  0  0  0  0  0
    6.6592    2.8100    0.0000 H   0  0  0  0  0  0  0  0  0  0  0  0
    8.0622    0.3800    0.0000 H   0  0  0  0  0  0  0  0  0  0  0  0
    9.4651    1.1900    0.0000 H   0  0  0  0  0  0  0  0  0  0  0  0
    8.5991    4.3100    0.0000 H   0  0  0  0  0  0  0  0  0  0  0  0
   10.1042    2.4631    0.0000 H   0  0  0  0  0  0  0  0  0  0  0  0
   10.3312    3.3100    0.0000 H   0  0  0  0  0  0  0  0  0  0  0  0
    9.4842    3.5369    0.0000 H   0  0  0  0  0  0  0  0  0  0  0  0
    4.9272    5.8100    0.0000 H   0  0  0  0  0  0  0  0  0  0  0  0
    6.3301    6.6200    0.0000 H   0  0  0  0  0  0  0  0  0  0  0  0
    5.1350    2.6900    0.0000 H   0  0  0  0  0  0  0  0  0  0  0  0
    3.7320    5.1200    0.0000 H   0  0  0  0  0  0  0  0  0  0  0  0
    3.7320    1.8800    0.0000 H   0  0  0  0  0  0  0  0  0  0  0  0
    2.3291    2.6900    0.0000 H   0  0  0  0  0  0  0  0  0  0  0  0
  1 21  2  0  0  0  0
  2  9  1  0  0  0  0
  2 10  1  0  0  0  0
  2 13  1  0  0  0  0
  3 11  1  0  0  0  0
  3 12  1  0  0  0  0
  3 14  1  0  0  0  0
  4 21  1  0  0  0  0
  4 22  1  0  0  0  0
  4 55  1  0  0  0  0
  5 23  1  0  0  0  0
  5 29  1  0  0  0  0
  5 59  1  0  0  0  0
  6 29  1  0  0  0  0
  6 30  2  0  0  0  0
  7 29  2  0  0  0  0
  7 33  1  0  0  0  0
  8 35  1  0  0  0  0
  8 37  2  0  0  0  0
  9 11  1  0  0  0  0
  9 40  1  0  0  0  0
  9 41  1  0  0  0  0
 10 12  1  0  0  0  0
 10 38  1  0  0  0  0
 10 39  1  0  0  0  0
 11 44  1  0  0  0  0
 11 45  1  0  0  0  0
 12 42  1  0  0  0  0
 12 43  1  0  0  0  0
 13 15  1  0  0  0  0
 13 46  1  0  0  0  0
 13 47  1  0  0  0  0
 14 48  1  0  0  0  0
 14 49  1  0  0  0  0
 14 50  1  0  0  0  0
 15 16  2  0  0  0  0
 15 17  1  0  0  0  0
 16 18  1  0  0  0  0
 16 51  1  0  0  0  0
 17 19  2  0  0  0  0
 17 52  1  0  0  0  0
 18 20  2  0  0  0  0
 18 53  1  0  0  0  0
 19 20  1  0  0  0  0
 19 54  1  0  0  0  0
 20 21  1  0  0  0  0
 22 24  2  0  0  0  0
 22 26  1  0  0  0  0
 23 24  1  0  0  0  0
 23 25  2  0  0  0  0
 24 56  1  0  0  0  0
 25 27  1  0  0  0  0
 25 28  1  0  0  0  0
 26 27  2  0  0  0  0
 26 57  1  0  0  0  0
 27 58  1  0  0  0  0
 28 60  1  0  0  0  0
 28 61  1  0  0  0  0
 28 62  1  0  0  0  0
 30 31  1  0  0  0  0
 30 32  1  0  0  0  0
 31 34  1  0  0  0  0
 31 35  2  0  0  0  0
 32 33  2  0  0  0  0
 32 63  1  0  0  0  0
 33 64  1  0  0  0  0
 34 36  2  0  0  0  0
 34 65  1  0  0  0  0
 35 66  1  0  0  0  0
 36 37  1  0  0  0  0
 36 67  1  0  0  0  0
 37 68  1  0  0  0  0
M  END
> <PUBCHEM_COMPOUND_CID>
5291

> <PUBCHEM_COMPOUND_CANONICALIZED>
1

> <PUBCHEM_CACTVS_COMPLEXITY>
706

> <PUBCHEM_CACTVS_HBOND_ACCEPTOR>
7

> <PUBCHEM_CACTVS_HBOND_DONOR>
2

> <PUBCHEM_CACTVS_ROTATABLE_BOND>
7

> <PUBCHEM_CACTVS_SUBSKEYS>
AAADceB7oAAAAAAAAAAAAAAAAAAAAAAAAAA8eLECAAAAAAAB9AAAHgAQAAAADAjBngQ/0JfIEACoAzV3dACCgCk1AqAJ2CE4ZNiIaPLA3dGUJQholALIyacYiACOSAAAAAQCAACQAAAACAQAAAAAAAAAAA==

> <PUBCHEM_IUPAC_OPENEYE_NAME>
4-[(4-methylpiperazin-1-yl)methyl]-N-[4-methyl-3-[[4-(3-pyridyl)pyrimidin-2-yl]amino]phenyl]benzamide

> <PUBCHEM_IUPAC_CAS_NAME>
4-[(4-methyl-1-piperazinyl)methyl]-N-[4-methyl-3-[[4-(3-pyridinyl)-2-pyrimidinyl]amino]phenyl]benzamide

> <PUBCHEM_IUPAC_NAME>
4-[(4-methylpiperazin-1-yl)methyl]-N-[4-methyl-3-[(4-pyridin-3-ylpyrimidin-2-yl)amino]phenyl]benzamide

> <PUBCHEM_IUPAC_SYSTEMATIC_NAME>
4-[(4-methylpiperazin-1-yl)methyl]-N-[4-methyl-3-[(4-pyridin-3-ylpyrimidin-2-yl)amino]phenyl]benzamide

> <PUBCHEM_IUPAC_TRADITIONAL_NAME>
4-[(4-methylpiperazino)methyl]-N-[4-methyl-3-[[4-(3-pyridyl)pyrimidin-2-yl]amino]phenyl]benzamide

> <PUBCHEM_IUPAC_INCHI>
InChI=1S/C29H31N7O/c1-21-5-10-25(18-27(21)34-29-31-13-11-26(33-29)24-4-3-12-30-19-24)32-28(37)23-8-6-22(7-9-23)20-36-16-14-35(2)15-17-36/h3-13,18-19H,14-17,20H2,1-2H3,(H,32,37)(H,31,33,34)

> <PUBCHEM_IUPAC_INCHIKEY>
KTUFNOKKBVMGRW-UHFFFAOYSA-N

> <PUBCHEM_XLOGP3_AA>
3.5

> <PUBCHEM_EXACT_MASS>
493.259

> <PUBCHEM_MOLECULAR_FORMULA>
C29H31N7O

> <PUBCHEM_MOLECULAR_WEIGHT>
493.615

> <PUBCHEM_OPENEYE_CAN_SMILES>
CC1=C(C=C(C=C1)NC(=O)C2=CC=C(C=C2)CN3CCN(CC3)C)NC4=NC=CC(=N4)C5=CN=CC=C5

> <PUBCHEM_OPENEYE_ISO_SMILES>
CC1=C(C=C(C=C1)NC(=O)C2=CC=C(C=C2)CN3CCN(CC3)C)NC4=NC=CC(=N4)C5=CN=CC=C5

> <PUBCHEM_CACTVS_TPSA>
86.3

> <PUBCHEM_MONOISOTOPIC_WEIGHT>
493.259

> <PUBCHEM_TOTAL_CHARGE>
0

> <PUBCHEM_HEAVY_ATOM_COUNT>
37

> <PUBCHEM_ATOM_DEF_STEREO_COUNT>
0

> <PUBCHEM_ATOM_UDEF_STEREO_COUNT>
0

> <PUBCHEM_BOND_DEF_STEREO_COUNT>
0

> <PUBCHEM_BOND_UDEF_STEREO_COUNT>
0

> <PUBCHEM_ISOTOPIC_ATOM_COUNT>
0

> <PUBCHEM_COMPONENT_COUNT>
1

> <PUBCHEM_CACTVS_TAUTO_COUNT>
72

> <PUBCHEM_COORDINATE_TYPE>
1
5
255

> <PUBCHEM_BONDANNOTATIONS>
15  16  8
15  17  8
16  18  8
17  19  8
18  20  8
19  20  8
22  24  8
22  26  8
23  24  8
23  25  8
25  27  8
26  27  8
30  32  8
31  34  8
31  35  8
32  33  8
34  36  8
36  37  8
6  29  8
6  30  8
7  29  8
7  33  8
8  35  8
8  37  8

$$$$
160355
  -OEChem-11021605012D

 52 54  0     1  0  0  0  0  0999 V2000
    2.5369    2.0002    0.0000 O   0  0  0  0  0  0  0  0  0  0  0  0
    8.6793    2.3050    0.0000 N   0  0  0  0  0  0  0  0  0  0  0  0
    5.1350    2.5002    0.0000 N   0  0  0  0  0  0  0  0  0  0  0  0
    6.8671    2.5002    0.0000 N   0  0  0  0  0  0  0  0  0  0  0  0
    8.6793    0.6955    0.0000 N   0  0  0  0  0  0  0  0  0  0  0  0
    6.0010    1.0002    0.0000 N   0  0  0  0  0  0  0  0  0  0  0  0
    6.8671   -0.4998    0.0000 N   0  0  0  0  0  0  0  0  0  0  0  0
    8.9900    3.2555    0.0000 C   0  0  0  0  0  0  0  0  0  0  0  0
    4.2690    2.0002    0.0000 C   0  0  2  0  0  0  0  0  0  0  0  0
    7.7331    2.0002    0.0000 C   0  0  0  0  0  0  0  0  0  0  0  0
    7.7331    1.0002    0.0000 C   0  0  0  0  0  0  0  0  0  0  0  0
    4.2690    1.0002    0.0000 C   0  0  0  0  0  0  0  0  0  0  0  0
    6.8671    0.5002    0.0000 C   0  0  0  0  0  0  0  0  0  0  0  0
    6.0010    2.0002    0.0000 C   0  0  0  0  0  0  0  0  0  0  0  0
    9.2629    1.5002    0.0000 C   0  0  0  0  0  0  0  0  0  0  0  0
    9.9685    3.4617    0.0000 C   0  0  0  0  0  0  0  0  0  0  0  0
    8.3221    3.9998    0.0000 C   0  0  0  0  0  0  0  0  0  0  0  0
    3.4030    2.5002    0.0000 C   0  0  0  0  0  0  0  0  0  0  0  0
    3.4030    0.5002    0.0000 C   0  0  0  0  0  0  0  0  0  0  0  0
    6.0010   -0.9998    0.0000 C   0  0  0  0  0  0  0  0  0  0  0  0
    6.0010   -1.9998    0.0000 C   0  0  0  0  0  0  0  0  0  0  0  0
    5.1350   -2.4998    0.0000 C   0  0  0  0  0  0  0  0  0  0  0  0
    6.8671   -2.4998    0.0000 C   0  0  0  0  0  0  0  0  0  0  0  0
    5.1350   -3.4998    0.0000 C   0  0  0  0  0  0  0  0  0  0  0  0
    6.8671   -3.4998    0.0000 C   0  0  0  0  0  0  0  0  0  0  0  0
    6.0010   -3.9998    0.0000 C   0  0  0  0  0  0  0  0  0  0  0  0
    9.1826    3.8448    0.0000 H   0  0  0  0  0  0  0  0  0  0  0  0
    4.2690    2.6202    0.0000 H   0  0  0  0  0  0  0  0  0  0  0  0
    4.4810    0.4176    0.0000 H   0  0  0  0  0  0  0  0  0  0  0  0
    4.8796    1.1079    0.0000 H   0  0  0  0  0  0  0  0  0  0  0  0
    5.1350    3.1202    0.0000 H   0  0  0  0  0  0  0  0  0  0  0  0
    9.8829    1.5002    0.0000 H   0  0  0  0  0  0  0  0  0  0  0  0
   10.0963    2.8550    0.0000 H   0  0  0  0  0  0  0  0  0  0  0  0
   10.5751    3.5896    0.0000 H   0  0  0  0  0  0  0  0  0  0  0  0
    9.8406    4.0684    0.0000 H   0  0  0  0  0  0  0  0  0  0  0  0
    8.7836    4.4138    0.0000 H   0  0  0  0  0  0  0  0  0  0  0  0
    7.9081    4.4612    0.0000 H   0  0  0  0  0  0  0  0  0  0  0  0
    7.8607    3.5857    0.0000 H   0  0  0  0  0  0  0  0  0  0  0  0
    3.8015    2.9752    0.0000 H   0  0  0  0  0  0  0  0  0  0  0  0
    3.0044    2.9752    0.0000 H   0  0  0  0  0  0  0  0  0  0  0  0
    7.4040   -0.8098    0.0000 H   0  0  0  0  0  0  0  0  0  0  0  0
    3.0930    1.0372    0.0000 H   0  0  0  0  0  0  0  0  0  0  0  0
    2.8660    0.1902    0.0000 H   0  0  0  0  0  0  0  0  0  0  0  0
    3.7130   -0.0367    0.0000 H   0  0  0  0  0  0  0  0  0  0  0  0
    5.7890   -0.4172    0.0000 H   0  0  0  0  0  0  0  0  0  0  0  0
    5.3905   -1.1074    0.0000 H   0  0  0  0  0  0  0  0  0  0  0  0
    2.0000    2.3102    0.0000 H   0  0  0  0  0  0  0  0  0  0  0  0
    4.5981   -2.1898    0.0000 H   0  0  0  0  0  0  0  0  0  0  0  0
    7.4040   -2.1898    0.0000 H   0  0  0  0  0  0  0  0  0  0  0  0
    4.5981   -3.8098    0.0000 H   0  0  0  0  0  0  0  0  0  0  0  0
    7.4040   -3.8098    0.0000 H   0  0  0  0  0  0  0  0  0  0  0  0
    6.0010   -4.6198    0.0000 H   0  0  0  0  0  0  0  0  0  0  0  0
  1 18  1  0  0  0  0
  1 47  1  0  0  0  0
  2  8  1  0  0  0  0
  2 10  1  0  0  0  0
  2 15  1  0  0  0  0
  9  3  1  6  0  0  0
  3 14  1  0  0  0  0
  3 31  1  0  0  0  0
  4 10  2  0  0  0  0
  4 14  1  0  0  0  0
  5 11  1  0  0  0  0
  5 15  2  0  0  0  0
  6 13  1  0  0  0  0
  6 14  2  0  0  0  0
  7 13  1  0  0  0  0
  7 20  1  0  0  0  0
  7 41  1  0  0  0  0
  8 16  1  0  0  0  0
  8 17  1  0  0  0  0
  8 27  1  0  0  0  0
  9 12  1  0  0  0  0
  9 18  1  0  0  0  0
  9 28  1  0  0  0  0
 10 11  1  0  0  0  0
 11 13  2  0  0  0  0
 12 19  1  0  0  0  0
 12 29  1  0  0  0  0
 12 30  1  0  0  0  0
 15 32  1  0  0  0  0
 16 33  1  0  0  0  0
 16 34  1  0  0  0  0
 16 35  1  0  0  0  0
 17 36  1  0  0  0  0
 17 37  1  0  0  0  0
 17 38  1  0  0  0  0
 18 39  1  0  0  0  0
 18 40  1  0  0  0  0
 19 42  1  0  0  0  0
 19 43  1  0  0  0  0
 19 44  1  0  0  0  0
 20 21  1  0  0  0  0
 20 45  1  0  0  0  0
 20 46  1  0  0  0  0
 21 22  2  0  0  0  0
 21 23  1  0  0  0  0
 22 24  1  0  0  0  0
 22 48  1  0  0  0  0
 23 25  2  0  0  0  0
 23 49  1  0  0  0  0
 24 26  2  0  0  0  0
 24 50  1  0  0  0  0
 25 26  1  0  0  0  0
 25 51  1  0  0  0  0
 26 52  1  0  0  0  0
M  END
> <PUBCHEM_COMPOUND_CID>
160355

> <PUBCHEM_COMPOUND_CANONICALIZED>
1

> <PUBCHEM_CACTVS_COMPLEXITY>
417

> <PUBCHEM_CACTVS_HBOND_ACCEPTOR>
6

> <PUBCHEM_CACTVS_HBOND_DONOR>
3

> <PUBCHEM_CACTVS_ROTATABLE_BOND>
8

> <PUBCHEM_CACTVS_SUBSKEYS>
AAADceB7oAAAAAAAAAAAAAAAAAAAAWAAAAA8QAAAAAAAAFgB/AAAHgAQCAAADCjhnwY38L/MEgCgAyZjZACCgC0xEKAJ2KAoVJiKeCLA2VGUZAhskALYiCcQgAAOAAAAAAAAAAAAAAAAAAAAAAAAAAAAAA==

> <PUBCHEM_IUPAC_OPENEYE_NAME>
(2R)-2-[[6-(benzylamino)-9-isopropyl-purin-2-yl]amino]butan-1-ol

> <PUBCHEM_IUPAC_CAS_NAME>
(2R)-2-[[6-[(phenylmethyl)amino]-9-propan-2-yl-2-purinyl]amino]-1-butanol

> <PUBCHEM_IUPAC_NAME>
(2R)-2-[[6-(benzylamino)-9-propan-2-ylpurin-2-yl]amino]butan-1-ol

> <PUBCHEM_IUPAC_SYSTEMATIC_NAME>
(2R)-2-[[6-[(phenylmethyl)amino]-9-propan-2-yl-purin-2-yl]amino]butan-1-ol

> <PUBCHEM_IUPAC_TRADITIONAL_NAME>
(2R)-2-[[6-(benzylamino)-9-isopropyl-purin-2-yl]amino]butan-1-ol

> <PUBCHEM_IUPAC_INCHI>
InChI=1S/C19H26N6O/c1-4-15(11-26)22-19-23-17(20-10-14-8-6-5-7-9-14)16-18(24-19)25(12-21-16)13(2)3/h5-9,12-13,15,26H,4,10-11H2,1-3H3,(H2,20,22,23,24)/t15-/m1/s1

> <PUBCHEM_IUPAC_INCHIKEY>
BTIHMVBBUGXLCJ-OAHLLOKOSA-N

> <PUBCHEM_XLOGP3_AA>
3.2

> <PUBCHEM_EXACT_MASS>
354.217

> <PUBCHEM_MOLECULAR_FORMULA>
C19H26N6O

> <PUBCHEM_MOLECULAR_WEIGHT>
354.458

> <PUBCHEM_OPENEYE_CAN_SMILES>
CCC(CO)NC1=NC2=C(C(=N1)NCC3=CC=CC=C3)N=CN2C(C)C

> <PUBCHEM_OPENEYE_ISO_SMILES>
CC[C@H](CO)NC1=NC2=C(C(=N1)NCC3=CC=CC=C3)N=CN2C(C)C

> <PUBCHEM_CACTVS_TPSA>
87.9

> <PUBCHEM_MONOISOTOPIC_WEIGHT>
354.217

> <PUBCHEM_TOTAL_CHARGE>
0

> <PUBCHEM_HEAVY_ATOM_COUNT>
26

> <PUBCHEM_ATOM_DEF_STEREO_COUNT>
1

> <PUBCHEM_ATOM_UDEF_STEREO_COUNT>
0

> <PUBCHEM_BOND_DEF_STEREO_COUNT>
0

> <PUBCHEM_BOND_UDEF_STEREO_COUNT>
0

> <PUBCHEM_ISOTOPIC_ATOM_COUNT>
0

> <PUBCHEM_COMPONENT_COUNT>
1

> <PUBCHEM_CACTVS_TAUTO_COUNT>
6

> <PUBCHEM_COORDINATE_TYPE>
1
5
255

> <PUBCHEM_BONDANNOTATIONS>
10  11  8
11  13  8
2  10  8
2  15  8
21  22  8
21  23  8
22  24  8
23  25  8
24  26  8
25  26  8
9  3  6
4  10  8
4  14  8
5  11  8
5  15  8
6  13  8
6  14  8

$$$$
176870
  -OEChem-11021605012D

 52 54  0     0  0  0  0  0  0999 V2000
    5.4641    0.3372    0.0000 O   0  0  0  0  0  0  0  0  0  0  0  0
    5.4641    2.3372    0.0000 O   0  0  0  0  0  0  0  0  0  0  0  0
    2.8660    0.8372    0.0000 O   0  0  0  0  0  0  0  0  0  0  0  0
    4.5981    4.8372    0.0000 O   0  0  0  0  0  0  0  0  0  0  0  0
    8.9446   -0.6974    0.0000 N   0  0  0  0  0  0  0  0  0  0  0  0
    8.9561    2.3718    0.0000 N   0  0  0  0  0  0  0  0  0  0  0  0
    9.8622    0.8163    0.0000 N   0  0  0  0  0  0  0  0  0  0  0  0
    8.0622    0.8372    0.0000 C   0  0  0  0  0  0  0  0  0  0  0  0
    8.0622    1.8372    0.0000 C   0  0  0  0  0  0  0  0  0  0  0  0
    6.3301    0.8372    0.0000 C   0  0  0  0  0  0  0  0  0  0  0  0
    6.3301    1.8372    0.0000 C   0  0  0  0  0  0  0  0  0  0  0  0
    7.1962    0.3372    0.0000 C   0  0  0  0  0  0  0  0  0  0  0  0
    8.9561    0.3025    0.0000 C   0  0  0  0  0  0  0  0  0  0  0  0
    7.1962    2.3372    0.0000 C   0  0  0  0  0  0  0  0  0  0  0  0
    4.5981    0.8372    0.0000 C   0  0  0  0  0  0  0  0  0  0  0  0
    9.8047   -1.2074    0.0000 C   0  0  0  0  0  0  0  0  0  0  0  0
    5.4641    3.3372    0.0000 C   0  0  0  0  0  0  0  0  0  0  0  0
    9.8622    1.8580    0.0000 C   0  0  0  0  0  0  0  0  0  0  0  0
    3.7320    0.3372    0.0000 C   0  0  0  0  0  0  0  0  0  0  0  0
    4.5981    3.8372    0.0000 C   0  0  0  0  0  0  0  0  0  0  0  0
    9.7932   -2.2074    0.0000 C   0  0  0  0  0  0  0  0  0  0  0  0
   10.6765   -0.7175    0.0000 C   0  0  0  0  0  0  0  0  0  0  0  0
   10.6534   -2.7173    0.0000 C   0  0  0  0  0  0  0  0  0  0  0  0
   11.5367   -1.2274    0.0000 C   0  0  0  0  0  0  0  0  0  0  0  0
   11.5251   -2.2274    0.0000 C   0  0  0  0  0  0  0  0  0  0  0  0
    2.0000    0.3372    0.0000 C   0  0  0  0  0  0  0  0  0  0  0  0
    3.7320    5.3372    0.0000 C   0  0  0  0  0  0  0  0  0  0  0  0
   10.6418   -3.7173    0.0000 C   0  0  0  0  0  0  0  0  0  0  0  0
   10.6302   -4.7172    0.0000 C   0  0  0  0  0  0  0  0  0  0  0  0
    7.1962   -0.2828    0.0000 H   0  0  0  0  0  0  0  0  0  0  0  0
    7.1962    2.9572    0.0000 H   0  0  0  0  0  0  0  0  0  0  0  0
    8.4041   -1.0012    0.0000 H   0  0  0  0  0  0  0  0  0  0  0  0
    4.9966    1.3121    0.0000 H   0  0  0  0  0  0  0  0  0  0  0  0
    4.1996    1.3121    0.0000 H   0  0  0  0  0  0  0  0  0  0  0  0
    6.0747    3.2295    0.0000 H   0  0  0  0  0  0  0  0  0  0  0  0
    5.6762    3.9198    0.0000 H   0  0  0  0  0  0  0  0  0  0  0  0
   10.3979    2.1700    0.0000 H   0  0  0  0  0  0  0  0  0  0  0  0
    3.3335   -0.1378    0.0000 H   0  0  0  0  0  0  0  0  0  0  0  0
    4.1306   -0.1378    0.0000 H   0  0  0  0  0  0  0  0  0  0  0  0
    3.9875    3.9448    0.0000 H   0  0  0  0  0  0  0  0  0  0  0  0
    4.3860    3.2546    0.0000 H   0  0  0  0  0  0  0  0  0  0  0  0
    9.2527   -2.5111    0.0000 H   0  0  0  0  0  0  0  0  0  0  0  0
   10.6837   -0.0975    0.0000 H   0  0  0  0  0  0  0  0  0  0  0  0
   12.0772   -0.9237    0.0000 H   0  0  0  0  0  0  0  0  0  0  0  0
   12.0584   -2.5436    0.0000 H   0  0  0  0  0  0  0  0  0  0  0  0
    1.6900    0.8741    0.0000 H   0  0  0  0  0  0  0  0  0  0  0  0
    1.4631    0.0272    0.0000 H   0  0  0  0  0  0  0  0  0  0  0  0
    2.3100   -0.1998    0.0000 H   0  0  0  0  0  0  0  0  0  0  0  0
    4.0420    5.8741    0.0000 H   0  0  0  0  0  0  0  0  0  0  0  0
    3.1951    5.6472    0.0000 H   0  0  0  0  0  0  0  0  0  0  0  0
    3.4220    4.8002    0.0000 H   0  0  0  0  0  0  0  0  0  0  0  0
   10.6231   -5.3372    0.0000 H   0  0  0  0  0  0  0  0  0  0  0  0
  1 10  1  0  0  0  0
  1 15  1  0  0  0  0
  2 11  1  0  0  0  0
  2 17  1  0  0  0  0
  3 19  1  0  0  0  0
  3 26  1  0  0  0  0
  4 20  1  0  0  0  0
  4 27  1  0  0  0  0
  5 13  1  0  0  0  0
  5 16  1  0  0  0  0
  5 32  1  0  0  0  0
  6  9  1  0  0  0  0
  6 18  2  0  0  0  0
  7 13  2  0  0  0  0
  7 18  1  0  0  0  0
  8  9  1  0  0  0  0
  8 12  2  0  0  0  0
  8 13  1  0  0  0  0
  9 14  2  0  0  0  0
 10 11  2  0  0  0  0
 10 12  1  0  0  0  0
 11 14  1  0  0  0  0
 12 30  1  0  0  0  0
 14 31  1  0  0  0  0
 15 19  1  0  0  0  0
 15 33  1  0  0  0  0
 15 34  1  0  0  0  0
 16 21  1  0  0  0  0
 16 22  2  0  0  0  0
 17 20  1  0  0  0  0
 17 35  1  0  0  0  0
 17 36  1  0  0  0  0
 18 37  1  0  0  0  0
 19 38  1  0  0  0  0
 19 39  1  0  0  0  0
 20 40  1  0  0  0  0
 20 41  1  0  0  0  0
 21 23  2  0  0  0  0
 21 42  1  0  0  0  0
 22 24  1  0  0  0  0
 22 43  1  0  0  0  0
 23 25  1  0  0  0  0
 23 28  1  0  0  0  0
 24 25  2  0  0  0  0
 24 44  1  0  0  0  0
 25 45  1  0  0  0  0
 26 46  1  0  0  0  0
 26 47  1  0  0  0  0
 26 48  1  0  0  0  0
 27 49  1  0  0  0  0
 27 50  1  0  0  0  0
 27 51  1  0  0  0  0
 28 29  3  0  0  0  0
 29 52  1  0  0  0  0
M  END
> <PUBCHEM_COMPOUND_CID>
176870

> <PUBCHEM_COMPOUND_CANONICALIZED>
1

> <PUBCHEM_CACTVS_COMPLEXITY>
525

> <PUBCHEM_CACTVS_HBOND_ACCEPTOR>
7

> <PUBCHEM_CACTVS_HBOND_DONOR>
1

> <PUBCHEM_CACTVS_ROTATABLE_BOND>
11

> <PUBCHEM_CACTVS_SUBSKEYS>
AAADceB7OAAAAAAAAAAAAAAAAAAAAAAAAAA8YIAAAAAAAACx9AAAHgAQAAAADAyhngY39vbIFADgGyZjZAiCiCkxIqAJ2CA+7JiNLuLE+duGPCru0BvK6Cew0BMOIEABQgACQABAgAKEAASAAAAAAAAAAA==

> <PUBCHEM_IUPAC_OPENEYE_NAME>
N-(3-ethynylphenyl)-6,7-bis(2-methoxyethoxy)quinazolin-4-amine

> <PUBCHEM_IUPAC_CAS_NAME>
N-(3-ethynylphenyl)-6,7-bis(2-methoxyethoxy)-4-quinazolinamine

> <PUBCHEM_IUPAC_NAME>
N-(3-ethynylphenyl)-6,7-bis(2-methoxyethoxy)quinazolin-4-amine

> <PUBCHEM_IUPAC_SYSTEMATIC_NAME>
N-(3-ethynylphenyl)-6,7-bis(2-methoxyethoxy)quinazolin-4-amine

> <PUBCHEM_IUPAC_TRADITIONAL_NAME>
[6,7-bis(2-methoxyethoxy)quinazolin-4-yl]-(3-ethynylphenyl)amine

> <PUBCHEM_IUPAC_INCHI>
InChI=1S/C22H23N3O4/c1-4-16-6-5-7-17(12-16)25-22-18-13-20(28-10-8-26-2)21(29-11-9-27-3)14-19(18)23-15-24-22/h1,5-7,12-15H,8-11H2,2-3H3,(H,23,24,25)

> <PUBCHEM_IUPAC_INCHIKEY>
AAKJLRGGTJKAMG-UHFFFAOYSA-N

> <PUBCHEM_XLOGP3_AA>
3.3

> <PUBCHEM_EXACT_MASS>
393.169

> <PUBCHEM_MOLECULAR_FORMULA>
C22H23N3O4

> <PUBCHEM_MOLECULAR_WEIGHT>
393.443

> <PUBCHEM_OPENEYE_CAN_SMILES>
COCCOC1=C(C=C2C(=C1)C(=NC=N2)NC3=CC=CC(=C3)C#C)OCCOC

> <PUBCHEM_OPENEYE_ISO_SMILES>
COCCOC1=C(C=C2C(=C1)C(=NC=N2)NC3=CC=CC(=C3)C#C)OCCOC

> <PUBCHEM_CACTVS_TPSA>
74.7

> <PUBCHEM_MONOISOTOPIC_WEIGHT>
393.169

> <PUBCHEM_TOTAL_CHARGE>
0

> <PUBCHEM_HEAVY_ATOM_COUNT>
29

> <PUBCHEM_ATOM_DEF_STEREO_COUNT>
0

> <PUBCHEM_ATOM_UDEF_STEREO_COUNT>
0

> <PUBCHEM_BOND_DEF_STEREO_COUNT>
0

> <PUBCHEM_BOND_UDEF_STEREO_COUNT>
0

> <PUBCHEM_ISOTOPIC_ATOM_COUNT>
0

> <PUBCHEM_COMPONENT_COUNT>
1

> <PUBCHEM_CACTVS_TAUTO_COUNT>
3

> <PUBCHEM_COORDINATE_TYPE>
1
5
255

> <PUBCHEM_BONDANNOTATIONS>
10  11  8
10  12  8
11  14  8
16  21  8
16  22  8
21  23  8
22  24  8
23  25  8
24  25  8
6  18  8
6  9  8
7  13  8
7  18  8
8  12  8
8  13  8
8  9  8
9  14  8

$$$$
216239
  -OEChem-11021605012D

 48 50  0     0  0  0  0  0  0999 V2000
    2.0000    3.7500    0.0000 Cl  0  0  0  0  0  0  0  0  0  0  0  0
    3.7320    5.7500    0.0000 F   0  0  0  0  0  0  0  0  0  0  0  0
    4.7320    4.7500    0.0000 F   0  0  0  0  0  0  0  0  0  0  0  0
    2.7320    4.7500    0.0000 F   0  0  0  0  0  0  0  0  0  0  0  0
    6.3301   -3.7500    0.0000 O   0  0  0  0  0  0  0  0  0  0  0  0
    4.5981    0.2500    0.0000 O   0  0  0  0  0  0  0  0  0  0  0  0
    9.7942   -2.7500    0.0000 O   0  0  0  0  0  0  0  0  0  0  0  0
    5.4641    1.7500    0.0000 N   0  0  0  0  0  0  0  0  0  0  0  0
    6.3301    0.2500    0.0000 N   0  0  0  0  0  0  0  0  0  0  0  0
    8.9282   -5.2500    0.0000 N   0  0  0  0  0  0  0  0  0  0  0  0
   10.6603   -4.2500    0.0000 N   0  0  0  0  0  0  0  0  0  0  0  0
    4.5981    2.2500    0.0000 C   0  0  0  0  0  0  0  0  0  0  0  0
    3.7320    3.7500    0.0000 C   0  0  0  0  0  0  0  0  0  0  0  0
    4.5981    3.2500    0.0000 C   0  0  0  0  0  0  0  0  0  0  0  0
    6.3301   -0.7500    0.0000 C   0  0  0  0  0  0  0  0  0  0  0  0
    3.7320    1.7500    0.0000 C   0  0  0  0  0  0  0  0  0  0  0  0
    6.3301   -2.7500    0.0000 C   0  0  0  0  0  0  0  0  0  0  0  0
    2.8660    3.2500    0.0000 C   0  0  0  0  0  0  0  0  0  0  0  0
    7.1962   -1.2500    0.0000 C   0  0  0  0  0  0  0  0  0  0  0  0
    5.4641   -1.2500    0.0000 C   0  0  0  0  0  0  0  0  0  0  0  0
    2.8660    2.2500    0.0000 C   0  0  0  0  0  0  0  0  0  0  0  0
    7.1962   -2.2500    0.0000 C   0  0  0  0  0  0  0  0  0  0  0  0
    5.4641   -2.2500    0.0000 C   0  0  0  0  0  0  0  0  0  0  0  0
    5.4641    0.7500    0.0000 C   0  0  0  0  0  0  0  0  0  0  0  0
    3.7320    4.7500    0.0000 C   0  0  0  0  0  0  0  0  0  0  0  0
    7.1962   -4.2500    0.0000 C   0  0  0  0  0  0  0  0  0  0  0  0
    8.0622   -3.7500    0.0000 C   0  0  0  0  0  0  0  0  0  0  0  0
    8.9282   -4.2500    0.0000 C   0  0  0  0  0  0  0  0  0  0  0  0
    7.1962   -5.2500    0.0000 C   0  0  0  0  0  0  0  0  0  0  0  0
    8.0622   -5.7500    0.0000 C   0  0  0  0  0  0  0  0  0  0  0  0
    9.7942   -3.7500    0.0000 C   0  0  0  0  0  0  0  0  0  0  0  0
   11.5263   -3.7500    0.0000 C   0  0  0  0  0  0  0  0  0  0  0  0
    5.1350    3.5600    0.0000 H   0  0  0  0  0  0  0  0  0  0  0  0
    3.7320    1.1300    0.0000 H   0  0  0  0  0  0  0  0  0  0  0  0
    6.0010    2.0600    0.0000 H   0  0  0  0  0  0  0  0  0  0  0  0
    7.7331   -0.9400    0.0000 H   0  0  0  0  0  0  0  0  0  0  0  0
    4.9272   -0.9400    0.0000 H   0  0  0  0  0  0  0  0  0  0  0  0
    6.8671    0.5600    0.0000 H   0  0  0  0  0  0  0  0  0  0  0  0
    2.3291    1.9400    0.0000 H   0  0  0  0  0  0  0  0  0  0  0  0
    7.7331   -2.5600    0.0000 H   0  0  0  0  0  0  0  0  0  0  0  0
    4.9272   -2.5600    0.0000 H   0  0  0  0  0  0  0  0  0  0  0  0
    8.0622   -3.1300    0.0000 H   0  0  0  0  0  0  0  0  0  0  0  0
    6.6592   -5.5600    0.0000 H   0  0  0  0  0  0  0  0  0  0  0  0
    8.0622   -6.3700    0.0000 H   0  0  0  0  0  0  0  0  0  0  0  0
   10.6603   -4.8700    0.0000 H   0  0  0  0  0  0  0  0  0  0  0  0
   11.8363   -4.2869    0.0000 H   0  0  0  0  0  0  0  0  0  0  0  0
   12.0632   -3.4400    0.0000 H   0  0  0  0  0  0  0  0  0  0  0  0
   11.2163   -3.2131    0.0000 H   0  0  0  0  0  0  0  0  0  0  0  0
  1 18  1  0  0  0  0
  2 25  1  0  0  0  0
  3 25  1  0  0  0  0
  4 25  1  0  0  0  0
  5 17  1  0  0  0  0
  5 26  1  0  0  0  0
  6 24  2  0  0  0  0
  7 31  2  0  0  0  0
  8 12  1  0  0  0  0
  8 24  1  0  0  0  0
  8 35  1  0  0  0  0
  9 15  1  0  0  0  0
  9 24  1  0  0  0  0
  9 38  1  0  0  0  0
 10 28  2  0  0  0  0
 10 30  1  0  0  0  0
 11 31  1  0  0  0  0
 11 32  1  0  0  0  0
 11 45  1  0  0  0  0
 12 14  2  0  0  0  0
 12 16  1  0  0  0  0
 13 14  1  0  0  0  0
 13 18  2  0  0  0  0
 13 25  1  0  0  0  0
 14 33  1  0  0  0  0
 15 19  2  0  0  0  0
 15 20  1  0  0  0  0
 16 21  2  0  0  0  0
 16 34  1  0  0  0  0
 17 22  2  0  0  0  0
 17 23  1  0  0  0  0
 18 21  1  0  0  0  0
 19 22  1  0  0  0  0
 19 36  1  0  0  0  0
 20 23  2  0  0  0  0
 20 37  1  0  0  0  0
 21 39  1  0  0  0  0
 22 40  1  0  0  0  0
 23 41  1  0  0  0  0
 26 27  2  0  0  0  0
 26 29  1  0  0  0  0
 27 28  1  0  0  0  0
 27 42  1  0  0  0  0
 28 31  1  0  0  0  0
 29 30  2  0  0  0  0
 29 43  1  0  0  0  0
 30 44  1  0  0  0  0
 32 46  1  0  0  0  0
 32 47  1  0  0  0  0
 32 48  1  0  0  0  0
M  END
> <PUBCHEM_COMPOUND_CID>
216239

> <PUBCHEM_COMPOUND_CANONICALIZED>
1

> <PUBCHEM_CACTVS_COMPLEXITY>
646

> <PUBCHEM_CACTVS_HBOND_ACCEPTOR>
7

> <PUBCHEM_CACTVS_HBOND_DONOR>
3

> <PUBCHEM_CACTVS_ROTATABLE_BOND>
5

> <PUBCHEM_CACTVS_SUBSKEYS>
AAADceB7sYAEAAAAAAAAAAAAAAAAAAAAAAA8YIAAAAAAAAAB0AAAHwIQAAAADA7BnjQ/xpLIFACoAzV3VACCiCA3JyAI2KG+btiMZnLFt7uWOSju1hvI6ae6yAAOAEBAQAABAAAAgICAAAIAAAAAAAAAAA==

> <PUBCHEM_IUPAC_OPENEYE_NAME>
4-[4-[[4-chloro-3-(trifluoromethyl)phenyl]carbamoylamino]phenoxy]-N-methyl-pyridine-2-carboxamide

> <PUBCHEM_IUPAC_CAS_NAME>
4-[4-[[[4-chloro-3-(trifluoromethyl)anilino]-oxomethyl]amino]phenoxy]-N-methyl-2-pyridinecarboxamide

> <PUBCHEM_IUPAC_NAME>
4-[4-[[4-chloro-3-(trifluoromethyl)phenyl]carbamoylamino]phenoxy]-N-methylpyridine-2-carboxamide

> <PUBCHEM_IUPAC_SYSTEMATIC_NAME>
4-[4-[[4-chloranyl-3-(trifluoromethyl)phenyl]carbamoylamino]phenoxy]-N-methyl-pyridine-2-carboxamide

> <PUBCHEM_IUPAC_TRADITIONAL_NAME>
4-[4-[[4-chloro-3-(trifluoromethyl)phenyl]carbamoylamino]phenoxy]-N-methyl-picolinamide

> <PUBCHEM_IUPAC_INCHI>
InChI=1S/C21H16ClF3N4O3/c1-26-19(30)18-11-15(8-9-27-18)32-14-5-2-12(3-6-14)28-20(31)29-13-4-7-17(22)16(10-13)21(23,24)25/h2-11H,1H3,(H,26,30)(H2,28,29,31)

> <PUBCHEM_IUPAC_INCHIKEY>
MLDQJTXFUGDVEO-UHFFFAOYSA-N

> <PUBCHEM_XLOGP3_AA>
4.1

> <PUBCHEM_EXACT_MASS>
464.086

> <PUBCHEM_MOLECULAR_FORMULA>
C21H16ClF3N4O3

> <PUBCHEM_MOLECULAR_WEIGHT>
464.829

> <PUBCHEM_OPENEYE_CAN_SMILES>
CNC(=O)C1=NC=CC(=C1)OC2=CC=C(C=C2)NC(=O)NC3=CC(=C(C=C3)Cl)C(F)(F)F

> <PUBCHEM_OPENEYE_ISO_SMILES>
CNC(=O)C1=NC=CC(=C1)OC2=CC=C(C=C2)NC(=O)NC3=CC(=C(C=C3)Cl)C(F)(F)F

> <PUBCHEM_CACTVS_TPSA>
92.4

> <PUBCHEM_MONOISOTOPIC_WEIGHT>
464.086

> <PUBCHEM_TOTAL_CHARGE>
0

> <PUBCHEM_HEAVY_ATOM_COUNT>
32

> <PUBCHEM_ATOM_DEF_STEREO_COUNT>
0

> <PUBCHEM_ATOM_UDEF_STEREO_COUNT>
0

> <PUBCHEM_BOND_DEF_STEREO_COUNT>
0

> <PUBCHEM_BOND_UDEF_STEREO_COUNT>
0

> <PUBCHEM_ISOTOPIC_ATOM_COUNT>
0

> <PUBCHEM_COMPONENT_COUNT>
1

> <PUBCHEM_CACTVS_TAUTO_COUNT>
6

> <PUBCHEM_COORDINATE_TYPE>
1
5
255

> <PUBCHEM_BONDANNOTATIONS>
10  28  8
10  30  8
12  14  8
12  16  8
13  14  8
13  18  8
15  19  8
15  20  8
16  21  8
17  22  8
17  23  8
18  21  8
19  22  8
20  23  8
26  27  8
26  29  8
27  28  8
29  30  8

$$$$
8515
  -OEChem-11021605012D

 25 28  0     0  0  0  0  0  0999 V2000
    4.6660    2.2333    0.0000 O   0  0  0  0  0  0  0  0  0  0  0  0
    3.3073   -1.7106    0.0000 N   0  0  0  0  0  0  0  0  0  0  0  0
    4.3009   -1.6910    0.0000 N   0  0  0  0  0  0  0  0  0  0  0  0
    3.8000   -0.2667    0.0000 C   0  0  0  0  0  0  0  0  0  0  0  0
    4.6660   -0.7667    0.0000 C   0  0  0  0  0  0  0  0  0  0  0  0
    3.8000    0.7333    0.0000 C   0  0  0  0  0  0  0  0  0  0  0  0
    5.5321   -0.2667    0.0000 C   0  0  0  0  0  0  0  0  0  0  0  0
    2.9061   -0.8014    0.0000 C   0  0  0  0  0  0  0  0  0  0  0  0
    5.5321    0.7333    0.0000 C   0  0  0  0  0  0  0  0  0  0  0  0
    4.6660    1.2333    0.0000 C   0  0  0  0  0  0  0  0  0  0  0  0
    2.9061    1.2680    0.0000 C   0  0  0  0  0  0  0  0  0  0  0  0
    2.0000   -0.2875    0.0000 C   0  0  0  0  0  0  0  0  0  0  0  0
    6.4260   -0.8014    0.0000 C   0  0  0  0  0  0  0  0  0  0  0  0
    6.4260    1.2680    0.0000 C   0  0  0  0  0  0  0  0  0  0  0  0
    2.0000    0.7541    0.0000 C   0  0  0  0  0  0  0  0  0  0  0  0
    7.3321   -0.2875    0.0000 C   0  0  0  0  0  0  0  0  0  0  0  0
    7.3321    0.7541    0.0000 C   0  0  0  0  0  0  0  0  0  0  0  0
    2.9132    1.8879    0.0000 H   0  0  0  0  0  0  0  0  0  0  0  0
    2.9739   -2.2333    0.0000 H   0  0  0  0  0  0  0  0  0  0  0  0
    1.4643   -0.5996    0.0000 H   0  0  0  0  0  0  0  0  0  0  0  0
    6.4188   -1.4213    0.0000 H   0  0  0  0  0  0  0  0  0  0  0  0
    6.4188    1.8879    0.0000 H   0  0  0  0  0  0  0  0  0  0  0  0
    1.4643    1.0662    0.0000 H   0  0  0  0  0  0  0  0  0  0  0  0
    7.8678   -0.5996    0.0000 H   0  0  0  0  0  0  0  0  0  0  0  0
    7.8678    1.0662    0.0000 H   0  0  0  0  0  0  0  0  0  0  0  0
  1 10  2  0  0  0  0
  2  3  1  0  0  0  0
  2  8  1  0  0  0  0
  2 19  1  0  0  0  0
  3  5  2  0  0  0  0
  4  5  1  0  0  0  0
  4  6  2  0  0  0  0
  4  8  1  0  0  0  0
  5  7  1  0  0  0  0
  6 10  1  0  0  0  0
  6 11  1  0  0  0  0
  7  9  1  0  0  0  0
  7 13  2  0  0  0  0
  8 12  2  0  0  0  0
  9 10  1  0  0  0  0
  9 14  2  0  0  0  0
 11 15  2  0  0  0  0
 11 18  1  0  0  0  0
 12 15  1  0  0  0  0
 12 20  1  0  0  0  0
 13 16  1  0  0  0  0
 13 21  1  0  0  0  0
 14 17  1  0  0  0  0
 14 22  1  0  0  0  0
 15 23  1  0  0  0  0
 16 17  2  0  0  0  0
 16 24  1  0  0  0  0
 17 25  1  0  0  0  0
M  END
> <PUBCHEM_COMPOUND_CID>
8515

> <PUBCHEM_COMPOUND_CANONICALIZED>
1

> <PUBCHEM_CACTVS_COMPLEXITY>
343

> <PUBCHEM_CACTVS_HBOND_ACCEPTOR>
2

> <PUBCHEM_CACTVS_HBOND_DONOR>
1

> <PUBCHEM_CACTVS_ROTATABLE_BOND>
0

> <PUBCHEM_CACTVS_SUBSKEYS>
AAADccBzIAAAAAAAAAAAAAAAAAAAAWAAAAAwYMAAAAAAAFjB9AAAHgAYAAAADAyBngAwwPBjAACqA6RyQACSBAAkAgAYuSEwZNgIILKA1dGApQBgmAAIyYcciMCOgAAAQAASAACAAASAACQAAAAAAAAAAA==

> <PUBCHEM_IUPAC_INCHI>
InChI=1S/C14H8N2O/c17-14-9-5-2-1-4-8(9)13-12-10(14)6-3-7-11(12)15-16-13/h1-7H,(H,15,16)

> <PUBCHEM_IUPAC_INCHIKEY>
ACPOUJIDANTYHO-UHFFFAOYSA-N

> <PUBCHEM_XLOGP3_AA>
2.7

> <PUBCHEM_EXACT_MASS>
220.064

> <PUBCHEM_MOLECULAR_FORMULA>
C14H8N2O

> <PUBCHEM_MOLECULAR_WEIGHT>
220.231

> <PUBCHEM_OPENEYE_CAN_SMILES>
C1=CC=C2C(=C1)C3=NNC4=CC=CC(=C43)C2=O

> <PUBCHEM_OPENEYE_ISO_SMILES>
C1=CC=C2C(=C1)C3=NNC4=CC=CC(=C43)C2=O

> <PUBCHEM_CACTVS_TPSA>
45.8

> <PUBCHEM_MONOISOTOPIC_WEIGHT>
220.064

> <PUBCHEM_TOTAL_CHARGE>
0

> <PUBCHEM_HEAVY_ATOM_COUNT>
17

> <PUBCHEM_ATOM_DEF_STEREO_COUNT>
0

> <PUBCHEM_ATOM_UDEF_STEREO_COUNT>
0

> <PUBCHEM_BOND_DEF_STEREO_COUNT>
0

> <PUBCHEM_BOND_UDEF_STEREO_COUNT>
0

> <PUBCHEM_ISOTOPIC_ATOM_COUNT>
0

> <PUBCHEM_COMPONENT_COUNT>
1

> <PUBCHEM_CACTVS_TAUTO_COUNT>
3

> <PUBCHEM_COORDINATE_TYPE>
1
5
255

> <PUBCHEM_BONDANNOTATIONS>
11  15  8
12  15  8
13  16  8
14  17  8
16  17  8
2  3  8
2  8  8
3  5  8
4  5  8
4  6  8
4  8  8
6  11  8
7  13  8
7  9  8
8  12  8
9  14  8

$$$$
5329102
  -OEChem-11021605012D

 56 58  0     0  0  0  0  0  0999 V2000
    2.0000   -1.4372    0.0000 F   0  0  0  0  0  0  0  0  0  0  0  0
    8.5992    2.0245    0.0000 O   0  0  0  0  0  0  0  0  0  0  0  0
    7.1279   -2.4372    0.0000 O   0  0  0  0  0  0  0  0  0  0  0  0
   12.2029    2.1376    0.0000 N   0  0  0  0  0  0  0  0  0  0  0  0
    7.5754   -1.1461    0.0000 N   0  0  0  0  0  0  0  0  0  0  0  0
    9.8843    0.8633    0.0000 N   0  0  0  0  0  0  0  0  0  0  0  0
    5.5443   -3.2419    0.0000 N   0  0  0  0  0  0  0  0  0  0  0  0
   11.5325    1.3957    0.0000 C   0  0  0  0  0  0  0  0  0  0  0  0
    8.2361    0.3309    0.0000 C   0  0  0  0  0  0  0  0  0  0  0  0
    7.2418    0.4371    0.0000 C   0  0  0  0  0  0  0  0  0  0  0  0
    6.8335   -0.4757    0.0000 C   0  0  0  0  0  0  0  0  0  0  0  0
   10.5547    1.6053    0.0000 C   0  0  0  0  0  0  0  0  0  0  0  0
    8.4423   -0.6476    0.0000 C   0  0  0  0  0  0  0  0  0  0  0  0
   13.1807    1.9280    0.0000 C   0  0  0  0  0  0  0  0  0  0  0  0
   11.8956    3.0892    0.0000 C   0  0  0  0  0  0  0  0  0  0  0  0
    8.9065    1.0729    0.0000 C   0  0  0  0  0  0  0  0  0  0  0  0
    5.5443   -1.6324    0.0000 C   0  0  0  0  0  0  0  0  0  0  0  0
    5.8550   -0.6819    0.0000 C   0  0  0  0  0  0  0  0  0  0  0  0
    4.5981   -1.9372    0.0000 C   0  0  0  0  0  0  0  0  0  0  0  0
    6.7433    1.3040    0.0000 C   0  0  0  0  0  0  0  0  0  0  0  0
    4.5981   -2.9372    0.0000 C   0  0  0  0  0  0  0  0  0  0  0  0
    9.3552   -1.0559    0.0000 C   0  0  0  0  0  0  0  0  0  0  0  0
    6.1279   -2.4372    0.0000 C   0  0  0  0  0  0  0  0  0  0  0  0
   13.8511    2.6700    0.0000 C   0  0  0  0  0  0  0  0  0  0  0  0
   12.5660    3.8312    0.0000 C   0  0  0  0  0  0  0  0  0  0  0  0
    3.7320   -1.4372    0.0000 C   0  0  0  0  0  0  0  0  0  0  0  0
    3.7320   -3.4372    0.0000 C   0  0  0  0  0  0  0  0  0  0  0  0
    2.8660   -1.9372    0.0000 C   0  0  0  0  0  0  0  0  0  0  0  0
    2.8660   -2.9372    0.0000 C   0  0  0  0  0  0  0  0  0  0  0  0
   11.2993    0.8212    0.0000 H   0  0  0  0  0  0  0  0  0  0  0  0
   12.0577    1.0662    0.0000 H   0  0  0  0  0  0  0  0  0  0  0  0
   10.7880    2.1797    0.0000 H   0  0  0  0  0  0  0  0  0  0  0  0
   10.0295    1.9347    0.0000 H   0  0  0  0  0  0  0  0  0  0  0  0
    7.5096   -1.7626    0.0000 H   0  0  0  0  0  0  0  0  0  0  0  0
   12.9475    1.3536    0.0000 H   0  0  0  0  0  0  0  0  0  0  0  0
   13.7059    1.5986    0.0000 H   0  0  0  0  0  0  0  0  0  0  0  0
   11.5147    3.5785    0.0000 H   0  0  0  0  0  0  0  0  0  0  0  0
   11.3476    2.7991    0.0000 H   0  0  0  0  0  0  0  0  0  0  0  0
    5.4409   -0.2204    0.0000 H   0  0  0  0  0  0  0  0  0  0  0  0
   10.0749    0.2733    0.0000 H   0  0  0  0  0  0  0  0  0  0  0  0
    7.2808    1.6131    0.0000 H   0  0  0  0  0  0  0  0  0  0  0  0
    6.4342    1.8415    0.0000 H   0  0  0  0  0  0  0  0  0  0  0  0
    6.2058    0.9950    0.0000 H   0  0  0  0  0  0  0  0  0  0  0  0
    9.1020   -1.6219    0.0000 H   0  0  0  0  0  0  0  0  0  0  0  0
    9.9211   -1.3091    0.0000 H   0  0  0  0  0  0  0  0  0  0  0  0
    9.6083   -0.4900    0.0000 H   0  0  0  0  0  0  0  0  0  0  0  0
   13.0260    3.4156    0.0000 H   0  0  0  0  0  0  0  0  0  0  0  0
   12.9816    4.2912    0.0000 H   0  0  0  0  0  0  0  0  0  0  0  0
   12.1060    4.2469    0.0000 H   0  0  0  0  0  0  0  0  0  0  0  0
   14.3112    2.2544    0.0000 H   0  0  0  0  0  0  0  0  0  0  0  0
   14.2668    3.1301    0.0000 H   0  0  0  0  0  0  0  0  0  0  0  0
   13.3911    3.0857    0.0000 H   0  0  0  0  0  0  0  0  0  0  0  0
    5.7369   -3.8312    0.0000 H   0  0  0  0  0  0  0  0  0  0  0  0
    3.7320   -0.8172    0.0000 H   0  0  0  0  0  0  0  0  0  0  0  0
    3.7320   -4.0572    0.0000 H   0  0  0  0  0  0  0  0  0  0  0  0
    2.3291   -3.2472    0.0000 H   0  0  0  0  0  0  0  0  0  0  0  0
  1 28  1  0  0  0  0
  2 16  2  0  0  0  0
  3 23  2  0  0  0  0
  4  8  1  0  0  0  0
  4 14  1  0  0  0  0
  4 15  1  0  0  0  0
  5 11  1  0  0  0  0
  5 13  1  0  0  0  0
  5 34  1  0  0  0  0
  6 12  1  0  0  0  0
  6 16  1  0  0  0  0
  6 40  1  0  0  0  0
  7 21  1  0  0  0  0
  7 23  1  0  0  0  0
  7 53  1  0  0  0  0
  8 12  1  0  0  0  0
  8 30  1  0  0  0  0
  8 31  1  0  0  0  0
  9 10  1  0  0  0  0
  9 13  2  0  0  0  0
  9 16  1  0  0  0  0
 10 11  2  0  0  0  0
 10 20  1  0  0  0  0
 11 18  1  0  0  0  0
 12 32  1  0  0  0  0
 12 33  1  0  0  0  0
 13 22  1  0  0  0  0
 14 24  1  0  0  0  0
 14 35  1  0  0  0  0
 14 36  1  0  0  0  0
 15 25  1  0  0  0  0
 15 37  1  0  0  0  0
 15 38  1  0  0  0  0
 17 18  2  0  0  0  0
 17 19  1  0  0  0  0
 17 23  1  0  0  0  0
 18 39  1  0  0  0  0
 19 21  2  0  0  0  0
 19 26  1  0  0  0  0
 20 41  1  0  0  0  0
 20 42  1  0  0  0  0
 20 43  1  0  0  0  0
 21 27  1  0  0  0  0
 22 44  1  0  0  0  0
 22 45  1  0  0  0  0
 22 46  1  0  0  0  0
 24 50  1  0  0  0  0
 24 51  1  0  0  0  0
 24 52  1  0  0  0  0
 25 47  1  0  0  0  0
 25 48  1  0  0  0  0
 25 49  1  0  0  0  0
 26 28  2  0  0  0  0
 26 54  1  0  0  0  0
 27 29  2  0  0  0  0
 27 55  1  0  0  0  0
 28 29  1  0  0  0  0
 29 56  1  0  0  0  0
M  END
> <PUBCHEM_COMPOUND_CID>
5329102

> <PUBCHEM_COMPOUND_CANONICALIZED>
1

> <PUBCHEM_CACTVS_COMPLEXITY>
636

> <PUBCHEM_CACTVS_HBOND_ACCEPTOR>
4

> <PUBCHEM_CACTVS_HBOND_DONOR>
3

> <PUBCHEM_CACTVS_ROTATABLE_BOND>
7

> <PUBCHEM_CACTVS_SUBSKEYS>
AAADceB7sQAAAAAAAAAAAAAAAAAAAWLAAAAwAAAAAAAAAFgBwAAAHwAQAAAADAjBngwywJPJkACoAyVyVACCgCAlAiAImaE4ZNgIYHrA1ZGUIYhglgDIyccciICOgAAAAAACAAAAAAAAAAQAAAAAAAAAAA==

> <PUBCHEM_IUPAC_OPENEYE_NAME>
N-[2-(diethylamino)ethyl]-5-[(Z)-(5-fluoro-2-oxo-indolin-3-ylidene)methyl]-2,4-dimethyl-1H-pyrrole-3-carboxamide

> <PUBCHEM_IUPAC_CAS_NAME>
N-[2-(diethylamino)ethyl]-5-[(Z)-(5-fluoro-2-oxo-1H-indol-3-ylidene)methyl]-2,4-dimethyl-1H-pyrrole-3-carboxamide

> <PUBCHEM_IUPAC_NAME>
N-[2-(diethylamino)ethyl]-5-[(Z)-(5-fluoro-2-oxo-1H-indol-3-ylidene)methyl]-2,4-dimethyl-1H-pyrrole-3-carboxamide

> <PUBCHEM_IUPAC_SYSTEMATIC_NAME>
N-[2-(diethylamino)ethyl]-5-[(Z)-(5-fluoranyl-2-oxidanylidene-1H-indol-3-ylidene)methyl]-2,4-dimethyl-1H-pyrrole-3-carboxamide

> <PUBCHEM_IUPAC_TRADITIONAL_NAME>
N-[2-(diethylamino)ethyl]-5-[(Z)-(5-fluoro-2-keto-indolin-3-ylidene)methyl]-2,4-dimethyl-1H-pyrrole-3-carboxamide

> <PUBCHEM_IUPAC_INCHI>
InChI=1S/C22H27FN4O2/c1-5-27(6-2)10-9-24-22(29)20-13(3)19(25-14(20)4)12-17-16-11-15(23)7-8-18(16)26-21(17)28/h7-8,11-12,25H,5-6,9-10H2,1-4H3,(H,24,29)(H,26,28)/b17-12-

> <PUBCHEM_IUPAC_INCHIKEY>
WINHZLLDWRZWRT-ATVHPVEESA-N

> <PUBCHEM_XLOGP3_AA>
2.6

> <PUBCHEM_EXACT_MASS>
398.212

> <PUBCHEM_MOLECULAR_FORMULA>
C22H27FN4O2

> <PUBCHEM_MOLECULAR_WEIGHT>
398.482

> <PUBCHEM_OPENEYE_CAN_SMILES>
CCN(CC)CCNC(=O)C1=C(NC(=C1C)C=C2C3=C(C=CC(=C3)F)NC2=O)C

> <PUBCHEM_OPENEYE_ISO_SMILES>
CCN(CC)CCNC(=O)C1=C(NC(=C1C)/C=C\2/C3=C(C=CC(=C3)F)NC2=O)C

> <PUBCHEM_CACTVS_TPSA>
77.2

> <PUBCHEM_MONOISOTOPIC_WEIGHT>
398.212

> <PUBCHEM_TOTAL_CHARGE>
0

> <PUBCHEM_HEAVY_ATOM_COUNT>
29

> <PUBCHEM_ATOM_DEF_STEREO_COUNT>
0

> <PUBCHEM_ATOM_UDEF_STEREO_COUNT>
0

> <PUBCHEM_BOND_DEF_STEREO_COUNT>
1

> <PUBCHEM_BOND_UDEF_STEREO_COUNT>
0

> <PUBCHEM_ISOTOPIC_ATOM_COUNT>
0

> <PUBCHEM_COMPONENT_COUNT>
1

> <PUBCHEM_CACTVS_TAUTO_COUNT>
390

> <PUBCHEM_COORDINATE_TYPE>
1
5
255

> <PUBCHEM_BONDANNOTATIONS>
10  11  8
19  21  8
19  26  8
21  27  8
26  28  8
27  29  8
28  29  8
5  11  8
5  13  8
9  10  8
9  13  8

$$$$
5353940
  -OEChem-11021605012D

 39 42  0     0  0  0  0  0  0999 V2000
    4.8511   -4.3874    0.0000 F   0  0  0  0  0  0  0  0  0  0  0  0
    2.0000    4.3874    0.0000 O   0  0  0  0  0  0  0  0  0  0  0  0
    4.0421    0.2003    0.0000 N   0  0  0  0  0  0  0  0  0  0  0  0
    5.3511    1.1514    0.0000 N   0  0  0  0  0  0  0  0  0  0  0  0
    8.5133   -0.7267    0.0000 N   0  0  0  0  0  0  0  0  0  0  0  0
    4.8511   -0.3875    0.0000 C   0  0  0  0  0  0  0  0  0  0  0  0
    5.6602    0.2003    0.0000 C   0  0  0  0  0  0  0  0  0  0  0  0
    4.3511    1.1514    0.0000 C   0  0  0  0  0  0  0  0  0  0  0  0
    4.8511   -1.3874    0.0000 C   0  0  0  0  0  0  0  0  0  0  0  0
    6.6112   -0.1087    0.0000 C   0  0  0  0  0  0  0  0  0  0  0  0
    3.7634    1.9604    0.0000 C   0  0  0  0  0  0  0  0  0  0  0  0
    3.9851   -1.8874    0.0000 C   0  0  0  0  0  0  0  0  0  0  0  0
    5.7172   -1.8874    0.0000 C   0  0  0  0  0  0  0  0  0  0  0  0
    4.1701    2.8739    0.0000 C   0  0  0  0  0  0  0  0  0  0  0  0
    2.7688    1.8559    0.0000 C   0  0  0  0  0  0  0  0  0  0  0  0
    7.3544    0.5604    0.0000 C   0  0  0  0  0  0  0  0  0  0  0  0
    6.8191   -1.0868    0.0000 C   0  0  0  0  0  0  0  0  0  0  0  0
    3.9851   -2.8874    0.0000 C   0  0  0  0  0  0  0  0  0  0  0  0
    5.7172   -2.8874    0.0000 C   0  0  0  0  0  0  0  0  0  0  0  0
    3.5823    3.6830    0.0000 C   0  0  0  0  0  0  0  0  0  0  0  0
    2.1810    2.6649    0.0000 C   0  0  0  0  0  0  0  0  0  0  0  0
    4.8511   -3.3874    0.0000 C   0  0  0  0  0  0  0  0  0  0  0  0
    8.3054    0.2514    0.0000 C   0  0  0  0  0  0  0  0  0  0  0  0
    7.7702   -1.3958    0.0000 C   0  0  0  0  0  0  0  0  0  0  0  0
    2.5878    3.5784    0.0000 C   0  0  0  0  0  0  0  0  0  0  0  0
    3.4525    0.0087    0.0000 H   0  0  0  0  0  0  0  0  0  0  0  0
    5.7156    1.6530    0.0000 H   0  0  0  0  0  0  0  0  0  0  0  0
    3.4482   -1.5774    0.0000 H   0  0  0  0  0  0  0  0  0  0  0  0
    6.2541   -1.5774    0.0000 H   0  0  0  0  0  0  0  0  0  0  0  0
    4.7867    2.9388    0.0000 H   0  0  0  0  0  0  0  0  0  0  0  0
    2.5167    1.2895    0.0000 H   0  0  0  0  0  0  0  0  0  0  0  0
    7.2254    1.1669    0.0000 H   0  0  0  0  0  0  0  0  0  0  0  0
    6.3584   -1.5017    0.0000 H   0  0  0  0  0  0  0  0  0  0  0  0
    3.4482   -3.1974    0.0000 H   0  0  0  0  0  0  0  0  0  0  0  0
    6.2541   -3.1974    0.0000 H   0  0  0  0  0  0  0  0  0  0  0  0
    3.8345    4.2494    0.0000 H   0  0  0  0  0  0  0  0  0  0  0  0
    1.5644    2.6001    0.0000 H   0  0  0  0  0  0  0  0  0  0  0  0
    8.7662    0.6663    0.0000 H   0  0  0  0  0  0  0  0  0  0  0  0
    7.8991   -2.0023    0.0000 H   0  0  0  0  0  0  0  0  0  0  0  0
  1 22  1  0  0  0  0
  2 25  2  0  0  0  0
  3  6  1  0  0  0  0
  3  8  1  0  0  0  0
  3 26  1  0  0  0  0
  4  7  1  0  0  0  0
  4  8  1  0  0  0  0
  4 27  1  0  0  0  0
  5 23  2  0  0  0  0
  5 24  1  0  0  0  0
  6  7  2  0  0  0  0
  6  9  1  0  0  0  0
  7 10  1  0  0  0  0
  8 11  2  0  0  0  0
  9 12  2  0  0  0  0
  9 13  1  0  0  0  0
 10 16  2  0  0  0  0
 10 17  1  0  0  0  0
 11 14  1  0  0  0  0
 11 15  1  0  0  0  0
 12 18  1  0  0  0  0
 12 28  1  0  0  0  0
 13 19  2  0  0  0  0
 13 29  1  0  0  0  0
 14 20  2  0  0  0  0
 14 30  1  0  0  0  0
 15 21  2  0  0  0  0
 15 31  1  0  0  0  0
 16 23  1  0  0  0  0
 16 32  1  0  0  0  0
 17 24  2  0  0  0  0
 17 33  1  0  0  0  0
 18 22  2  0  0  0  0
 18 34  1  0  0  0  0
 19 22  1  0  0  0  0
 19 35  1  0  0  0  0
 20 25  1  0  0  0  0
 20 36  1  0  0  0  0
 21 25  1  0  0  0  0
 21 37  1  0  0  0  0
 23 38  1  0  0  0  0
 24 39  1  0  0  0  0
M  END
> <PUBCHEM_COMPOUND_CID>
5353940

> <PUBCHEM_COMPOUND_CANONICALIZED>
1

> <PUBCHEM_CACTVS_COMPLEXITY>
644

> <PUBCHEM_CACTVS_HBOND_ACCEPTOR>
5

> <PUBCHEM_CACTVS_HBOND_DONOR>
2

> <PUBCHEM_CACTVS_ROTATABLE_BOND>
2

> <PUBCHEM_CACTVS_SUBSKEYS>
AAADccB7IQAAAAAAAAAAAAAAAAAAAQAAAAA8QIAAAAAAAAABwAAAHwAQAAAADAzBmgw9gJLIEACoArR3RACCgCAxAiAI2CA4ZNiIIGLAkZGEIAhogALIyYcQgAAOAAAAAAAAAAAAAAAAAAAAAAAAAAAAAA==

> <PUBCHEM_IUPAC_OPENEYE_NAME>
4-[4-(4-fluorophenyl)-5-(4-pyridyl)-1,3-dihydroimidazol-2-ylidene]cyclohexa-2,5-dien-1-one

> <PUBCHEM_IUPAC_CAS_NAME>
4-[4-(4-fluorophenyl)-5-pyridin-4-yl-1,3-dihydroimidazol-2-ylidene]-1-cyclohexa-2,5-dienone

> <PUBCHEM_IUPAC_NAME>
4-[4-(4-fluorophenyl)-5-pyridin-4-yl-1,3-dihydroimidazol-2-ylidene]cyclohexa-2,5-dien-1-one

> <PUBCHEM_IUPAC_SYSTEMATIC_NAME>
4-[4-(4-fluorophenyl)-5-pyridin-4-yl-1,3-dihydroimidazol-2-ylidene]cyclohexa-2,5-dien-1-one

> <PUBCHEM_IUPAC_TRADITIONAL_NAME>
4-[4-(4-fluorophenyl)-5-(4-pyridyl)-4-imidazolin-2-ylidene]cyclohexa-2,5-dien-1-one

> <PUBCHEM_IUPAC_INCHI>
InChI=1S/C20H14FN3O/c21-16-5-1-13(2-6-16)18-19(14-9-11-22-12-10-14)24-20(23-18)15-3-7-17(25)8-4-15/h1-12,23-24H

> <PUBCHEM_IUPAC_INCHIKEY>
NJNKPVPFGLGHPA-UHFFFAOYSA-N

> <PUBCHEM_XLOGP3_AA>
3.1

> <PUBCHEM_EXACT_MASS>
331.112

> <PUBCHEM_MOLECULAR_FORMULA>
C20H14FN3O

> <PUBCHEM_MOLECULAR_WEIGHT>
331.35

> <PUBCHEM_OPENEYE_CAN_SMILES>
C1=CC(=O)C=CC1=C2NC(=C(N2)C3=CC=NC=C3)C4=CC=C(C=C4)F

> <PUBCHEM_OPENEYE_ISO_SMILES>
C1=CC(=O)C=CC1=C2NC(=C(N2)C3=CC=NC=C3)C4=CC=C(C=C4)F

> <PUBCHEM_CACTVS_TPSA>
54

> <PUBCHEM_MONOISOTOPIC_WEIGHT>
331.112

> <PUBCHEM_TOTAL_CHARGE>
0

> <PUBCHEM_HEAVY_ATOM_COUNT>
25

> <PUBCHEM_ATOM_DEF_STEREO_COUNT>
0

> <PUBCHEM_ATOM_UDEF_STEREO_COUNT>
0

> <PUBCHEM_BOND_DEF_STEREO_COUNT>
0

> <PUBCHEM_BOND_UDEF_STEREO_COUNT>
0

> <PUBCHEM_ISOTOPIC_ATOM_COUNT>
0

> <PUBCHEM_COMPONENT_COUNT>
1

> <PUBCHEM_CACTVS_TAUTO_COUNT>
10

> <PUBCHEM_COORDINATE_TYPE>
1
5
255

> <PUBCHEM_BONDANNOTATIONS>
10  16  8
10  17  8
12  18  8
13  19  8
16  23  8
17  24  8
18  22  8
19  22  8
5  23  8
5  24  8
9  12  8
9  13  8

$$$$
3038525
  -OEChem-11021605012D

 37 40  0     0  0  0  0  0  0999 V2000
    2.0000    1.0154    0.0000 Cl  0  0  0  0  0  0  0  0  0  0  0  0
    5.4641    1.0154    0.0000 Cl  0  0  0  0  0  0  0  0  0  0  0  0
    7.2622   -2.0087    0.0000 S   0  0  0  0  0  0  0  0  0  0  0  0
    8.9904   -3.0154    0.0000 F   0  0  0  0  0  0  0  0  0  0  0  0
   10.7340   -0.0221    0.0000 F   0  0  0  0  0  0  0  0  0  0  0  0
    2.0000    0.0154    0.0000 O   0  0  0  0  0  0  0  0  0  0  0  0
    4.5981   -1.4846    0.0000 N   0  0  0  0  0  0  0  0  0  0  0  0
    5.4920   -2.0192    0.0000 N   0  0  0  0  0  0  0  0  0  0  0  0
    2.8660   -1.4846    0.0000 N   0  0  0  0  0  0  0  0  0  0  0  0
    4.5981   -0.4846    0.0000 C   0  0  0  0  0  0  0  0  0  0  0  0
    3.7320    0.0154    0.0000 C   0  0  0  0  0  0  0  0  0  0  0  0
    3.7320    1.0154    0.0000 C   0  0  0  0  0  0  0  0  0  0  0  0
    5.4920    0.0501    0.0000 C   0  0  0  0  0  0  0  0  0  0  0  0
    2.8660   -0.4846    0.0000 C   0  0  0  0  0  0  0  0  0  0  0  0
    6.3981   -0.4638    0.0000 C   0  0  0  0  0  0  0  0  0  0  0  0
    6.3981   -1.5054    0.0000 C   0  0  0  0  0  0  0  0  0  0  0  0
    3.7320   -1.9846    0.0000 C   0  0  0  0  0  0  0  0  0  0  0  0
    2.8660    1.5154    0.0000 C   0  0  0  0  0  0  0  0  0  0  0  0
    4.5981    1.5154    0.0000 C   0  0  0  0  0  0  0  0  0  0  0  0
    2.8660    2.5154    0.0000 C   0  0  0  0  0  0  0  0  0  0  0  0
    4.5981    2.5154    0.0000 C   0  0  0  0  0  0  0  0  0  0  0  0
    3.7320    3.0154    0.0000 C   0  0  0  0  0  0  0  0  0  0  0  0
    8.1301   -1.5121    0.0000 C   0  0  0  0  0  0  0  0  0  0  0  0
    8.9942   -2.0154    0.0000 C   0  0  0  0  0  0  0  0  0  0  0  0
    8.1340   -0.5121    0.0000 C   0  0  0  0  0  0  0  0  0  0  0  0
    9.8622   -1.5188    0.0000 C   0  0  0  0  0  0  0  0  0  0  0  0
    9.0019   -0.0154    0.0000 C   0  0  0  0  0  0  0  0  0  0  0  0
    9.8660   -0.5188    0.0000 C   0  0  0  0  0  0  0  0  0  0  0  0
    5.4848    0.6700    0.0000 H   0  0  0  0  0  0  0  0  0  0  0  0
    6.9338   -0.1517    0.0000 H   0  0  0  0  0  0  0  0  0  0  0  0
    3.7320   -2.6046    0.0000 H   0  0  0  0  0  0  0  0  0  0  0  0
    2.3291    2.8254    0.0000 H   0  0  0  0  0  0  0  0  0  0  0  0
    5.1350    2.8254    0.0000 H   0  0  0  0  0  0  0  0  0  0  0  0
    3.7320    3.6354    0.0000 H   0  0  0  0  0  0  0  0  0  0  0  0
    7.5982   -0.2000    0.0000 H   0  0  0  0  0  0  0  0  0  0  0  0
   10.3979   -1.8308    0.0000 H   0  0  0  0  0  0  0  0  0  0  0  0
    9.0043    0.6046    0.0000 H   0  0  0  0  0  0  0  0  0  0  0  0
  1 18  1  0  0  0  0
  2 19  1  0  0  0  0
  3 16  1  0  0  0  0
  3 23  1  0  0  0  0
  4 24  1  0  0  0  0
  5 28  1  0  0  0  0
  6 14  2  0  0  0  0
  7  8  1  0  0  0  0
  7 10  1  0  0  0  0
  7 17  1  0  0  0  0
  8 16  2  0  0  0  0
  9 14  1  0  0  0  0
  9 17  2  0  0  0  0
 10 11  2  0  0  0  0
 10 13  1  0  0  0  0
 11 12  1  0  0  0  0
 11 14  1  0  0  0  0
 12 18  2  0  0  0  0
 12 19  1  0  0  0  0
 13 15  2  0  0  0  0
 13 29  1  0  0  0  0
 15 16  1  0  0  0  0
 15 30  1  0  0  0  0
 17 31  1  0  0  0  0
 18 20  1  0  0  0  0
 19 21  2  0  0  0  0
 20 22  2  0  0  0  0
 20 32  1  0  0  0  0
 21 22  1  0  0  0  0
 21 33  1  0  0  0  0
 22 34  1  0  0  0  0
 23 24  2  0  0  0  0
 23 25  1  0  0  0  0
 24 26  1  0  0  0  0
 25 27  2  0  0  0  0
 25 35  1  0  0  0  0
 26 28  2  0  0  0  0
 26 36  1  0  0  0  0
 27 28  1  0  0  0  0
 27 37  1  0  0  0  0
M  END
> <PUBCHEM_COMPOUND_CID>
3038525

> <PUBCHEM_COMPOUND_CANONICALIZED>
1

> <PUBCHEM_CACTVS_COMPLEXITY>
762

> <PUBCHEM_CACTVS_HBOND_ACCEPTOR>
5

> <PUBCHEM_CACTVS_HBOND_DONOR>
0

> <PUBCHEM_CACTVS_ROTATABLE_BOND>
3

> <PUBCHEM_CACTVS_SUBSKEYS>
AAADccB7IYBGAAAAAAAAAAAAAAAAAAAAAAAwYIEAAAAAAACBQAAAHwYIAAAADAqB2CwxAYIAAAioAiVzdACSAAEgDRAZiBkYAtgIIDKhnxGAIAAgiAAoiUcYiICOAAAAAACBAAAAAAAAAQIAAAAAAAAAAA==

> <PUBCHEM_IUPAC_OPENEYE_NAME>
5-(2,6-dichlorophenyl)-2-(2,4-difluorophenyl)sulfanyl-pyrimido[1,6-b]pyridazin-6-one

> <PUBCHEM_IUPAC_CAS_NAME>
5-(2,6-dichlorophenyl)-2-[(2,4-difluorophenyl)thio]-6-pyrimido[1,6-b]pyridazinone

> <PUBCHEM_IUPAC_NAME>
5-(2,6-dichlorophenyl)-2-(2,4-difluorophenyl)sulfanylpyrimido[1,6-b]pyridazin-6-one

> <PUBCHEM_IUPAC_SYSTEMATIC_NAME>
5-[2,6-bis(chloranyl)phenyl]-2-[2,4-bis(fluoranyl)phenyl]sulfanyl-pyrimido[1,6-b]pyridazin-6-one

> <PUBCHEM_IUPAC_TRADITIONAL_NAME>
5-(2,6-dichlorophenyl)-2-[(2,4-difluorophenyl)thio]pyrimido[1,6-b]pyridazin-6-one

> <PUBCHEM_IUPAC_INCHI>
InChI=1S/C19H9Cl2F2N3OS/c20-11-2-1-3-12(21)17(11)18-14-5-7-16(25-26(14)9-24-19(18)27)28-15-6-4-10(22)8-13(15)23/h1-9H

> <PUBCHEM_IUPAC_INCHIKEY>
VEPKQEUBKLEPRA-UHFFFAOYSA-N

> <PUBCHEM_XLOGP3_AA>
5.1

> <PUBCHEM_EXACT_MASS>
434.981

> <PUBCHEM_MOLECULAR_FORMULA>
C19H9Cl2F2N3OS

> <PUBCHEM_MOLECULAR_WEIGHT>
436.258

> <PUBCHEM_OPENEYE_CAN_SMILES>
C1=CC(=C(C(=C1)Cl)C2=C3C=CC(=NN3C=NC2=O)SC4=C(C=C(C=C4)F)F)Cl

> <PUBCHEM_OPENEYE_ISO_SMILES>
C1=CC(=C(C(=C1)Cl)C2=C3C=CC(=NN3C=NC2=O)SC4=C(C=C(C=C4)F)F)Cl

> <PUBCHEM_CACTVS_TPSA>
70.3

> <PUBCHEM_MONOISOTOPIC_WEIGHT>
434.981

> <PUBCHEM_TOTAL_CHARGE>
0

> <PUBCHEM_HEAVY_ATOM_COUNT>
28

> <PUBCHEM_ATOM_DEF_STEREO_COUNT>
0

> <PUBCHEM_ATOM_UDEF_STEREO_COUNT>
0

> <PUBCHEM_BOND_DEF_STEREO_COUNT>
0

> <PUBCHEM_BOND_UDEF_STEREO_COUNT>
0

> <PUBCHEM_ISOTOPIC_ATOM_COUNT>
0

> <PUBCHEM_COMPONENT_COUNT>
1

> <PUBCHEM_CACTVS_TAUTO_COUNT>
1

> <PUBCHEM_COORDINATE_TYPE>
1
5
255

> <PUBCHEM_BONDANNOTATIONS>
10  11  8
10  13  8
11  14  8
12  18  8
12  19  8
13  15  8
15  16  8
18  20  8
19  21  8
20  22  8
21  22  8
23  24  8
23  25  8
24  26  8
25  27  8
26  28  8
27  28  8
7  10  8
7  17  8
7  8  8
8  16  8
9  14  8
9  17  8

$$$$
5287969
  -OEChem-11021605012D

 48 51  0     1  0  0  0  0  0999 V2000
    6.9273   -1.1758    0.0000 Cl  0  0  0  0  0  0  0  0  0  0  0  0
    2.5369   -0.6550    0.0000 O   0  0  0  0  0  0  0  0  0  0  0  0
    6.0290    0.3103    0.0000 O   0  0  0  0  0  0  0  0  0  0  0  0
    2.5369    0.3450    0.0000 O   0  0  0  0  0  0  0  0  0  0  0  0
    4.2690    3.3450    0.0000 O   0  0  0  0  0  0  0  0  0  0  0  0
    6.0174    3.3796    0.0000 O   0  0  0  0  0  0  0  0  0  0  0  0
    4.2690   -2.6550    0.0000 N   0  0  3  0  0  0  0  0  0  0  0  0
    4.2690   -0.6550    0.0000 C   0  0  2  0  0  0  0  0  0  0  0  0
    3.4030   -1.1550    0.0000 C   0  0  1  0  0  0  0  0  0  0  0  0
    5.1350   -1.1550    0.0000 C   0  0  0  0  0  0  0  0  0  0  0  0
    3.4030   -2.1550    0.0000 C   0  0  0  0  0  0  0  0  0  0  0  0
    5.1350   -2.1550    0.0000 C   0  0  0  0  0  0  0  0  0  0  0  0
    4.2690    0.3450    0.0000 C   0  0  0  0  0  0  0  0  0  0  0  0
    5.1350    0.8450    0.0000 C   0  0  0  0  0  0  0  0  0  0  0  0
    4.2690   -3.6550    0.0000 C   0  0  0  0  0  0  0  0  0  0  0  0
    3.4030    0.8450    0.0000 C   0  0  0  0  0  0  0  0  0  0  0  0
    5.1350    1.8450    0.0000 C   0  0  0  0  0  0  0  0  0  0  0  0
    3.4030    1.8450    0.0000 C   0  0  0  0  0  0  0  0  0  0  0  0
    4.2690    2.3450    0.0000 C   0  0  0  0  0  0  0  0  0  0  0  0
    6.0290    2.3797    0.0000 C   0  0  0  0  0  0  0  0  0  0  0  0
    6.9350    0.8242    0.0000 C   0  0  0  0  0  0  0  0  0  0  0  0
    6.9350    1.8658    0.0000 C   0  0  0  0  0  0  0  0  0  0  0  0
    7.7991    0.3209    0.0000 C   0  0  0  0  0  0  0  0  0  0  0  0
    7.7953   -0.6791    0.0000 C   0  0  0  0  0  0  0  0  0  0  0  0
    8.6671    0.8175    0.0000 C   0  0  0  0  0  0  0  0  0  0  0  0
    8.6594   -1.1825    0.0000 C   0  0  0  0  0  0  0  0  0  0  0  0
    9.5312    0.3142    0.0000 C   0  0  0  0  0  0  0  0  0  0  0  0
    9.5273   -0.6858    0.0000 C   0  0  0  0  0  0  0  0  0  0  0  0
    5.0051   -0.2300    0.0000 H   0  0  0  0  0  0  0  0  0  0  0  0
    3.4030   -0.5350    0.0000 H   0  0  0  0  0  0  0  0  0  0  0  0
    5.7456   -1.2627    0.0000 H   0  0  0  0  0  0  0  0  0  0  0  0
    5.3471   -0.5724    0.0000 H   0  0  0  0  0  0  0  0  0  0  0  0
    2.7924   -2.0473    0.0000 H   0  0  0  0  0  0  0  0  0  0  0  0
    3.1909   -2.7376    0.0000 H   0  0  0  0  0  0  0  0  0  0  0  0
    5.3471   -2.7376    0.0000 H   0  0  0  0  0  0  0  0  0  0  0  0
    5.7456   -2.0473    0.0000 H   0  0  0  0  0  0  0  0  0  0  0  0
    3.6490   -3.6550    0.0000 H   0  0  0  0  0  0  0  0  0  0  0  0
    4.2690   -4.2750    0.0000 H   0  0  0  0  0  0  0  0  0  0  0  0
    4.8890   -3.6550    0.0000 H   0  0  0  0  0  0  0  0  0  0  0  0
    2.0000   -0.9650    0.0000 H   0  0  0  0  0  0  0  0  0  0  0  0
    2.8660    2.1550    0.0000 H   0  0  0  0  0  0  0  0  0  0  0  0
    7.4708    2.1779    0.0000 H   0  0  0  0  0  0  0  0  0  0  0  0
    2.0000    0.6550    0.0000 H   0  0  0  0  0  0  0  0  0  0  0  0
    3.7320    3.6550    0.0000 H   0  0  0  0  0  0  0  0  0  0  0  0
    8.6694    1.4375    0.0000 H   0  0  0  0  0  0  0  0  0  0  0  0
    8.6570   -1.8025    0.0000 H   0  0  0  0  0  0  0  0  0  0  0  0
   10.0693    0.6221    0.0000 H   0  0  0  0  0  0  0  0  0  0  0  0
   10.0630   -0.9979    0.0000 H   0  0  0  0  0  0  0  0  0  0  0  0
  1 24  1  0  0  0  0
  9  2  1  1  0  0  0
  2 40  1  0  0  0  0
  3 14  1  0  0  0  0
  3 21  1  0  0  0  0
  4 16  1  0  0  0  0
  4 43  1  0  0  0  0
  5 19  1  0  0  0  0
  5 44  1  0  0  0  0
  6 20  2  0  0  0  0
  7 11  1  0  0  0  0
  7 12  1  0  0  0  0
  7 15  1  0  0  0  0
  8  9  1  0  0  0  0
  8 10  1  0  0  0  0
  8 13  1  0  0  0  0
  8 29  1  6  0  0  0
  9 11  1  0  0  0  0
  9 30  1  0  0  0  0
 10 12  1  0  0  0  0
 10 31  1  0  0  0  0
 10 32  1  0  0  0  0
 11 33  1  0  0  0  0
 11 34  1  0  0  0  0
 12 35  1  0  0  0  0
 12 36  1  0  0  0  0
 13 14  1  0  0  0  0
 13 16  2  0  0  0  0
 14 17  2  0  0  0  0
 15 37  1  0  0  0  0
 15 38  1  0  0  0  0
 15 39  1  0  0  0  0
 16 18  1  0  0  0  0
 17 19  1  0  0  0  0
 17 20  1  0  0  0  0
 18 19  2  0  0  0  0
 18 41  1  0  0  0  0
 20 22  1  0  0  0  0
 21 22  2  0  0  0  0
 21 23  1  0  0  0  0
 22 42  1  0  0  0  0
 23 24  1  0  0  0  0
 23 25  2  0  0  0  0
 24 26  2  0  0  0  0
 25 27  1  0  0  0  0
 25 45  1  0  0  0  0
 26 28  1  0  0  0  0
 26 46  1  0  0  0  0
 27 28  2  0  0  0  0
 27 47  1  0  0  0  0
 28 48  1  0  0  0  0
M  END
> <PUBCHEM_COMPOUND_CID>
5287969

> <PUBCHEM_COMPOUND_CANONICALIZED>
1

> <PUBCHEM_CACTVS_COMPLEXITY>
628

> <PUBCHEM_CACTVS_HBOND_ACCEPTOR>
6

> <PUBCHEM_CACTVS_HBOND_DONOR>
3

> <PUBCHEM_CACTVS_ROTATABLE_BOND>
2

> <PUBCHEM_CACTVS_SUBSKEYS>
AAADceB6OAAEAAAAAAAAAAAAAAAAAAAAAAA8YIEAAAAAAACBQAAAHgIACAAADRbhmCYyBoMABgCIAqBSAAACCAAkJQAIiAEOCsgONzaHtxqGeWCl4BWYuQf4/P7OoAACCAAJAABAAAQQABIAAAAAAAAAAA==

> <PUBCHEM_IUPAC_OPENEYE_NAME>
2-(2-chlorophenyl)-5,7-dihydroxy-8-[(3S,4R)-3-hydroxy-1-methyl-4-piperidyl]chromen-4-one

> <PUBCHEM_IUPAC_CAS_NAME>
2-(2-chlorophenyl)-5,7-dihydroxy-8-[(3S,4R)-3-hydroxy-1-methyl-4-piperidinyl]-1-benzopyran-4-one

> <PUBCHEM_IUPAC_NAME>
2-(2-chlorophenyl)-5,7-dihydroxy-8-[(3S,4R)-3-hydroxy-1-methylpiperidin-4-yl]chromen-4-one

> <PUBCHEM_IUPAC_SYSTEMATIC_NAME>
2-(2-chlorophenyl)-8-[(3S,4R)-1-methyl-3-oxidanyl-piperidin-4-yl]-5,7-bis(oxidanyl)chromen-4-one

> <PUBCHEM_IUPAC_TRADITIONAL_NAME>
2-(2-chlorophenyl)-5,7-dihydroxy-8-[(3S,4R)-3-hydroxy-1-methyl-4-piperidyl]chromone

> <PUBCHEM_IUPAC_INCHI>
InChI=1S/C21H20ClNO5/c1-23-7-6-12(17(27)10-23)19-14(24)8-15(25)20-16(26)9-18(28-21(19)20)11-4-2-3-5-13(11)22/h2-5,8-9,12,17,24-25,27H,6-7,10H2,1H3/t12-,17+/m0/s1

> <PUBCHEM_IUPAC_INCHIKEY>
BIIVYFLTOXDAOV-YVEFUNNKSA-N

> <PUBCHEM_XLOGP3_AA>
3.3

> <PUBCHEM_EXACT_MASS>
401.103

> <PUBCHEM_MOLECULAR_FORMULA>
C21H20ClNO5

> <PUBCHEM_MOLECULAR_WEIGHT>
401.843

> <PUBCHEM_OPENEYE_CAN_SMILES>
CN1CCC(C(C1)O)C2=C(C=C(C3=C2OC(=CC3=O)C4=CC=CC=C4Cl)O)O

> <PUBCHEM_OPENEYE_ISO_SMILES>
CN1CC[C@@H]([C@@H](C1)O)C2=C(C=C(C3=C2OC(=CC3=O)C4=CC=CC=C4Cl)O)O

> <PUBCHEM_CACTVS_TPSA>
90.2

> <PUBCHEM_MONOISOTOPIC_WEIGHT>
401.103

> <PUBCHEM_TOTAL_CHARGE>
0

> <PUBCHEM_HEAVY_ATOM_COUNT>
28

> <PUBCHEM_ATOM_DEF_STEREO_COUNT>
2

> <PUBCHEM_ATOM_UDEF_STEREO_COUNT>
0

> <PUBCHEM_BOND_DEF_STEREO_COUNT>
0

> <PUBCHEM_BOND_UDEF_STEREO_COUNT>
0

> <PUBCHEM_ISOTOPIC_ATOM_COUNT>
0

> <PUBCHEM_COMPONENT_COUNT>
1

> <PUBCHEM_CACTVS_TAUTO_COUNT>
12

> <PUBCHEM_COORDINATE_TYPE>
1
5
255

> <PUBCHEM_BONDANNOTATIONS>
13  14  8
13  16  8
14  17  8
16  18  8
17  19  8
17  20  8
18  19  8
9  2  5
20  22  8
21  22  8
23  24  8
23  25  8
24  26  8
25  27  8
26  28  8
27  28  8
3  14  8
3  21  8
8  29  6

$$$$
153999
  -OEChem-11021605012D

 63 68  0     1  0  0  0  0  0999 V2000
    6.2152    2.2925    0.0000 O   0  0  0  0  0  0  0  0  0  0  0  0
    3.8586   -4.0416    0.0000 O   0  0  0  0  0  0  0  0  0  0  0  0
    7.3688   -4.0416    0.0000 O   0  0  0  0  0  0  0  0  0  0  0  0
    4.7880   -0.3274    0.0000 N   0  0  0  0  0  0  0  0  0  0  0  0
    6.4395   -0.3274    0.0000 N   0  0  0  0  0  0  0  0  0  0  0  0
    5.2832    4.0032    0.0000 N   0  0  0  0  0  0  0  0  0  0  0  0
    5.6137   -4.3168    0.0000 N   0  0  0  0  0  0  0  0  0  0  0  0
    5.0123    2.2925    0.0000 C   0  0  1  0  0  0  0  0  0  0  0  0
    4.6081    1.3846    0.0000 C   0  0  0  0  0  0  0  0  0  0  0  0
    5.1922    0.5805    0.0000 C   0  0  0  0  0  0  0  0  0  0  0  0
    4.6199   -1.9267    0.0000 C   0  0  0  0  0  0  0  0  0  0  0  0
    3.8159   -0.5341    0.0000 C   0  0  0  0  0  0  0  0  0  0  0  0
    3.7120   -1.5225    0.0000 C   0  0  0  0  0  0  0  0  0  0  0  0
    5.1168   -2.7874    0.0000 C   0  0  0  0  0  0  0  0  0  0  0  0
    4.6539    3.2260    0.0000 C   0  0  0  0  0  0  0  0  0  0  0  0
    6.6076   -1.9267    0.0000 C   0  0  0  0  0  0  0  0  0  0  0  0
    5.2849   -1.1881    0.0000 C   0  0  0  0  0  0  0  0  0  0  0  0
    6.1107   -2.7874    0.0000 C   0  0  0  0  0  0  0  0  0  0  0  0
    6.0353    0.5805    0.0000 C   0  0  0  0  0  0  0  0  0  0  0  0
    7.5155   -1.5225    0.0000 C   0  0  0  0  0  0  0  0  0  0  0  0
    7.4116   -0.5341    0.0000 C   0  0  0  0  0  0  0  0  0  0  0  0
    6.6194    1.3846    0.0000 C   0  0  0  0  0  0  0  0  0  0  0  0
    5.9426   -1.1881    0.0000 C   0  0  0  0  0  0  0  0  0  0  0  0
    4.8097   -3.7326    0.0000 C   0  0  0  0  0  0  0  0  0  0  0  0
    3.0118    0.0501    0.0000 C   0  0  0  0  0  0  0  0  0  0  0  0
    6.4178   -3.7326    0.0000 C   0  0  0  0  0  0  0  0  0  0  0  0
    2.8040   -1.9267    0.0000 C   0  0  0  0  0  0  0  0  0  0  0  0
    8.4235   -1.9267    0.0000 C   0  0  0  0  0  0  0  0  0  0  0  0
    8.2157    0.0501    0.0000 C   0  0  0  0  0  0  0  0  0  0  0  0
    2.1039   -0.3541    0.0000 C   0  0  0  0  0  0  0  0  0  0  0  0
    2.0000   -1.3425    0.0000 C   0  0  0  0  0  0  0  0  0  0  0  0
    4.9249    4.9368    0.0000 C   0  0  0  0  0  0  0  0  0  0  0  0
    6.2709    3.8468    0.0000 C   0  0  0  0  0  0  0  0  0  0  0  0
    9.2275   -1.3425    0.0000 C   0  0  0  0  0  0  0  0  0  0  0  0
    9.1236   -0.3541    0.0000 C   0  0  0  0  0  0  0  0  0  0  0  0
    4.3999    2.3895    0.0000 H   0  0  0  0  0  0  0  0  0  0  0  0
    4.0941    1.7312    0.0000 H   0  0  0  0  0  0  0  0  0  0  0  0
    4.1774    0.9386    0.0000 H   0  0  0  0  0  0  0  0  0  0  0  0
    5.7062    0.2338    0.0000 H   0  0  0  0  0  0  0  0  0  0  0  0
    5.6229    1.0265    0.0000 H   0  0  0  0  0  0  0  0  0  0  0  0
    4.2472    3.6940    0.0000 H   0  0  0  0  0  0  0  0  0  0  0  0
    4.1225    2.9067    0.0000 H   0  0  0  0  0  0  0  0  0  0  0  0
    5.9015   -1.2529    0.0000 H   0  0  0  0  0  0  0  0  0  0  0  0
    5.6046    1.0265    0.0000 H   0  0  0  0  0  0  0  0  0  0  0  0
    5.5213    0.2338    0.0000 H   0  0  0  0  0  0  0  0  0  0  0  0
    7.0501    0.9386    0.0000 H   0  0  0  0  0  0  0  0  0  0  0  0
    7.1334    1.7312    0.0000 H   0  0  0  0  0  0  0  0  0  0  0  0
    5.3260   -1.2529    0.0000 H   0  0  0  0  0  0  0  0  0  0  0  0
    3.0766    0.6667    0.0000 H   0  0  0  0  0  0  0  0  0  0  0  0
    2.7392   -2.5433    0.0000 H   0  0  0  0  0  0  0  0  0  0  0  0
    5.6137   -4.9368    0.0000 H   0  0  0  0  0  0  0  0  0  0  0  0
    8.4883   -2.5433    0.0000 H   0  0  0  0  0  0  0  0  0  0  0  0
    8.1509    0.6667    0.0000 H   0  0  0  0  0  0  0  0  0  0  0  0
    1.6023    0.0103    0.0000 H   0  0  0  0  0  0  0  0  0  0  0  0
    1.4336   -1.5947    0.0000 H   0  0  0  0  0  0  0  0  0  0  0  0
    5.5037    5.1590    0.0000 H   0  0  0  0  0  0  0  0  0  0  0  0
    6.1739    3.2344    0.0000 H   0  0  0  0  0  0  0  0  0  0  0  0
    4.7027    5.5156    0.0000 H   0  0  0  0  0  0  0  0  0  0  0  0
    4.3461    4.7146    0.0000 H   0  0  0  0  0  0  0  0  0  0  0  0
    6.8833    3.7498    0.0000 H   0  0  0  0  0  0  0  0  0  0  0  0
    6.3679    4.4591    0.0000 H   0  0  0  0  0  0  0  0  0  0  0  0
    9.7939   -1.5947    0.0000 H   0  0  0  0  0  0  0  0  0  0  0  0
    9.6252    0.0103    0.0000 H   0  0  0  0  0  0  0  0  0  0  0  0
  1  8  1  0  0  0  0
  1 22  1  0  0  0  0
  2 24  2  0  0  0  0
  3 26  2  0  0  0  0
  4 10  1  0  0  0  0
  4 12  1  0  0  0  0
  4 17  1  0  0  0  0
  5 19  1  0  0  0  0
  5 21  1  0  0  0  0
  5 23  1  0  0  0  0
  6 15  1  0  0  0  0
  6 32  1  0  0  0  0
  6 33  1  0  0  0  0
  7 24  1  0  0  0  0
  7 26  1  0  0  0  0
  7 51  1  0  0  0  0
  8  9  1  0  0  0  0
  8 15  1  1  0  0  0
  8 36  1  0  0  0  0
  9 10  1  0  0  0  0
  9 37  1  0  0  0  0
  9 38  1  0  0  0  0
 10 39  1  0  0  0  0
 10 40  1  0  0  0  0
 11 13  1  0  0  0  0
 11 14  1  0  0  0  0
 11 17  2  0  0  0  0
 12 13  1  0  0  0  0
 12 25  2  0  0  0  0
 13 27  2  0  0  0  0
 14 18  2  0  0  0  0
 14 24  1  0  0  0  0
 15 41  1  0  0  0  0
 15 42  1  0  0  0  0
 16 18  1  0  0  0  0
 16 20  1  0  0  0  0
 16 23  2  0  0  0  0
 17 43  1  0  0  0  0
 18 26  1  0  0  0  0
 19 22  1  0  0  0  0
 19 44  1  0  0  0  0
 19 45  1  0  0  0  0
 20 21  1  0  0  0  0
 20 28  2  0  0  0  0
 21 29  2  0  0  0  0
 22 46  1  0  0  0  0
 22 47  1  0  0  0  0
 23 48  1  0  0  0  0
 25 30  1  0  0  0  0
 25 49  1  0  0  0  0
 27 31  1  0  0  0  0
 27 50  1  0  0  0  0
 28 34  1  0  0  0  0
 28 52  1  0  0  0  0
 29 35  1  0  0  0  0
 29 53  1  0  0  0  0
 30 31  2  0  0  0  0
 30 54  1  0  0  0  0
 31 55  1  0  0  0  0
 32 56  1  0  0  0  0
 32 58  1  0  0  0  0
 32 59  1  0  0  0  0
 33 57  1  0  0  0  0
 33 60  1  0  0  0  0
 33 61  1  0  0  0  0
 34 35  2  0  0  0  0
 34 62  1  0  0  0  0
 35 63  1  0  0  0  0
M  END
> <PUBCHEM_COMPOUND_CID>
153999

> <PUBCHEM_COMPOUND_CANONICALIZED>
1

> <PUBCHEM_CACTVS_COMPLEXITY>
872

> <PUBCHEM_CACTVS_HBOND_ACCEPTOR>
4

> <PUBCHEM_CACTVS_HBOND_DONOR>
1

> <PUBCHEM_CACTVS_ROTATABLE_BOND>
2

> <PUBCHEM_CACTVS_SUBSKEYS>
AAADceB7sAAAAAAAAAAAAAAAAAAAAWLEAAAwYAAAAAAAAFgB/gAAHgAQAAAADBzhngY+wPPMFACoAzV3VACCgCAxAiAI2CE4ZNgKIPLAlZGHIAhihCDYyQccicCegAAAAAACAAAAAAAAAAQAAAAAAAAAAA==

> <PUBCHEM_IUPAC_INCHI>
InChI=1S/C28H28N4O3/c1-30(2)15-18-11-12-31-16-21(19-7-3-5-9-23(19)31)25-26(28(34)29-27(25)33)22-17-32(13-14-35-18)24-10-6-4-8-20(22)24/h3-10,16-18H,11-15H2,1-2H3,(H,29,33,34)/t18-/m0/s1

> <PUBCHEM_IUPAC_INCHIKEY>
ZCBUQCWBWNUWSU-SFHVURJKSA-N

> <PUBCHEM_XLOGP3_AA>
2.7

> <PUBCHEM_EXACT_MASS>
468.216

> <PUBCHEM_MOLECULAR_FORMULA>
C28H28N4O3

> <PUBCHEM_MOLECULAR_WEIGHT>
468.557

> <PUBCHEM_OPENEYE_CAN_SMILES>
CN(C)CC1CCN2C=C(C3=CC=CC=C32)C4=C(C5=CN(CCO1)C6=CC=CC=C65)C(=O)NC4=O

> <PUBCHEM_OPENEYE_ISO_SMILES>
CN(C)C[C@@H]1CCN2C=C(C3=CC=CC=C32)C4=C(C5=CN(CCO1)C6=CC=CC=C65)C(=O)NC4=O

> <PUBCHEM_CACTVS_TPSA>
68.5

> <PUBCHEM_MONOISOTOPIC_WEIGHT>
468.216

> <PUBCHEM_TOTAL_CHARGE>
0

> <PUBCHEM_HEAVY_ATOM_COUNT>
35

> <PUBCHEM_ATOM_DEF_STEREO_COUNT>
1

> <PUBCHEM_ATOM_UDEF_STEREO_COUNT>
0

> <PUBCHEM_BOND_DEF_STEREO_COUNT>
0

> <PUBCHEM_BOND_UDEF_STEREO_COUNT>
0

> <PUBCHEM_ISOTOPIC_ATOM_COUNT>
0

> <PUBCHEM_COMPONENT_COUNT>
1

> <PUBCHEM_CACTVS_TAUTO_COUNT>
3

> <PUBCHEM_COORDINATE_TYPE>
1
5
255

> <PUBCHEM_BONDANNOTATIONS>
11  13  8
11  17  8
12  13  8
12  25  8
13  27  8
16  20  8
16  23  8
20  21  8
20  28  8
21  29  8
25  30  8
27  31  8
28  34  8
29  35  8
30  31  8
34  35  8
4  12  8
4  17  8
5  21  8
5  23  8
8  15  5

$$$$
176155
  -OEChem-11021605012D

 43 46  0     1  0  0  0  0  0999 V2000
    4.8511   -4.1374    0.0000 S   0  0  3  0  0  0  0  0  0  0  0  0
    2.0000    4.6374    0.0000 F   0  0  0  0  0  0  0  0  0  0  0  0
    5.7172   -4.6374    0.0000 O   0  0  0  0  0  0  0  0  0  0  0  0
    5.6602    0.4503    0.0000 N   0  0  0  0  0  0  0  0  0  0  0  0
    4.0421    0.4503    0.0000 N   0  0  0  0  0  0  0  0  0  0  0  0
    7.1145    3.8284    0.0000 N   0  0  0  0  0  0  0  0  0  0  0  0
    5.3511    1.4014    0.0000 C   0  0  0  0  0  0  0  0  0  0  0  0
    4.3511    1.4014    0.0000 C   0  0  0  0  0  0  0  0  0  0  0  0
    4.8511   -0.1375    0.0000 C   0  0  0  0  0  0  0  0  0  0  0  0
    4.8511   -1.1374    0.0000 C   0  0  0  0  0  0  0  0  0  0  0  0
    3.7634    2.2104    0.0000 C   0  0  0  0  0  0  0  0  0  0  0  0
    5.9389    2.2104    0.0000 C   0  0  0  0  0  0  0  0  0  0  0  0
    3.9851   -1.6374    0.0000 C   0  0  0  0  0  0  0  0  0  0  0  0
    5.7172   -1.6374    0.0000 C   0  0  0  0  0  0  0  0  0  0  0  0
    4.1701    3.1239    0.0000 C   0  0  0  0  0  0  0  0  0  0  0  0
    2.7688    2.1059    0.0000 C   0  0  0  0  0  0  0  0  0  0  0  0
    4.8511   -3.1374    0.0000 C   0  0  0  0  0  0  0  0  0  0  0  0
    3.9851   -2.6374    0.0000 C   0  0  0  0  0  0  0  0  0  0  0  0
    5.7172   -2.6374    0.0000 C   0  0  0  0  0  0  0  0  0  0  0  0
    5.5322    3.1239    0.0000 C   0  0  0  0  0  0  0  0  0  0  0  0
    6.9334    2.1059    0.0000 C   0  0  0  0  0  0  0  0  0  0  0  0
    3.5823    3.9330    0.0000 C   0  0  0  0  0  0  0  0  0  0  0  0
    2.1810    2.9149    0.0000 C   0  0  0  0  0  0  0  0  0  0  0  0
    2.5878    3.8284    0.0000 C   0  0  0  0  0  0  0  0  0  0  0  0
    6.1200    3.9330    0.0000 C   0  0  0  0  0  0  0  0  0  0  0  0
    7.5212    2.9149    0.0000 C   0  0  0  0  0  0  0  0  0  0  0  0
    3.9851   -4.6374    0.0000 C   0  0  0  0  0  0  0  0  0  0  0  0
    6.2498    0.2587    0.0000 H   0  0  0  0  0  0  0  0  0  0  0  0
    3.4482   -1.3274    0.0000 H   0  0  0  0  0  0  0  0  0  0  0  0
    6.2541   -1.3274    0.0000 H   0  0  0  0  0  0  0  0  0  0  0  0
    4.7867    3.1888    0.0000 H   0  0  0  0  0  0  0  0  0  0  0  0
    2.5167    1.5395    0.0000 H   0  0  0  0  0  0  0  0  0  0  0  0
    3.4482   -2.9474    0.0000 H   0  0  0  0  0  0  0  0  0  0  0  0
    6.2541   -2.9474    0.0000 H   0  0  0  0  0  0  0  0  0  0  0  0
    4.9156    3.1888    0.0000 H   0  0  0  0  0  0  0  0  0  0  0  0
    7.1856    1.5395    0.0000 H   0  0  0  0  0  0  0  0  0  0  0  0
    3.8345    4.4994    0.0000 H   0  0  0  0  0  0  0  0  0  0  0  0
    1.5644    2.8501    0.0000 H   0  0  0  0  0  0  0  0  0  0  0  0
    5.8678    4.4994    0.0000 H   0  0  0  0  0  0  0  0  0  0  0  0
    8.1378    2.8501    0.0000 H   0  0  0  0  0  0  0  0  0  0  0  0
    3.6751   -4.1005    0.0000 H   0  0  0  0  0  0  0  0  0  0  0  0
    3.4482   -4.9474    0.0000 H   0  0  0  0  0  0  0  0  0  0  0  0
    4.2951   -5.1744    0.0000 H   0  0  0  0  0  0  0  0  0  0  0  0
  1  3  2  0  0  0  0
  1 17  1  0  0  0  0
  1 27  1  0  0  0  0
  2 24  1  0  0  0  0
  4  7  1  0  0  0  0
  4  9  1  0  0  0  0
  4 28  1  0  0  0  0
  5  8  1  0  0  0  0
  5  9  2  0  0  0  0
  6 25  2  0  0  0  0
  6 26  1  0  0  0  0
  7  8  2  0  0  0  0
  7 12  1  0  0  0  0
  8 11  1  0  0  0  0
  9 10  1  0  0  0  0
 10 13  2  0  0  0  0
 10 14  1  0  0  0  0
 11 15  2  0  0  0  0
 11 16  1  0  0  0  0
 12 20  2  0  0  0  0
 12 21  1  0  0  0  0
 13 18  1  0  0  0  0
 13 29  1  0  0  0  0
 14 19  2  0  0  0  0
 14 30  1  0  0  0  0
 15 22  1  0  0  0  0
 15 31  1  0  0  0  0
 16 23  2  0  0  0  0
 16 32  1  0  0  0  0
 17 18  2  0  0  0  0
 17 19  1  0  0  0  0
 18 33  1  0  0  0  0
 19 34  1  0  0  0  0
 20 25  1  0  0  0  0
 20 35  1  0  0  0  0
 21 26  2  0  0  0  0
 21 36  1  0  0  0  0
 22 24  2  0  0  0  0
 22 37  1  0  0  0  0
 23 24  1  0  0  0  0
 23 38  1  0  0  0  0
 25 39  1  0  0  0  0
 26 40  1  0  0  0  0
 27 41  1  0  0  0  0
 27 42  1  0  0  0  0
 27 43  1  0  0  0  0
M  END
> <PUBCHEM_COMPOUND_CID>
176155

> <PUBCHEM_COMPOUND_CANONICALIZED>
1

> <PUBCHEM_CACTVS_COMPLEXITY>
500

> <PUBCHEM_CACTVS_HBOND_ACCEPTOR>
5

> <PUBCHEM_CACTVS_HBOND_DONOR>
1

> <PUBCHEM_CACTVS_ROTATABLE_BOND>
4

> <PUBCHEM_CACTVS_SUBSKEYS>
AAADceB7IQBAAAAAAAAAAAAAAAAAAWAAAAA8YIAAAAAAAAAB9AAAHQQQAAAADAjBXwy/kZbJkAqgAzZnZEDCgC2xGrAJ2Tg4dJiIaOLgmZGUIAhogALIyCcQgMAOEAAAAAAAAAAgAAAAAAAAAAAAAAAAAA==

> <PUBCHEM_IUPAC_OPENEYE_NAME>
4-[4-(4-fluorophenyl)-2-(4-methylsulfinylphenyl)-1H-imidazol-5-yl]pyridine

> <PUBCHEM_IUPAC_CAS_NAME>
4-[4-(4-fluorophenyl)-2-(4-methylsulfinylphenyl)-1H-imidazol-5-yl]pyridine

> <PUBCHEM_IUPAC_NAME>
4-[4-(4-fluorophenyl)-2-(4-methylsulfinylphenyl)-1H-imidazol-5-yl]pyridine

> <PUBCHEM_IUPAC_SYSTEMATIC_NAME>
4-[4-(4-fluorophenyl)-2-(4-methylsulfinylphenyl)-1H-imidazol-5-yl]pyridine

> <PUBCHEM_IUPAC_TRADITIONAL_NAME>
4-[4-(4-fluorophenyl)-2-(4-methylsulfinylphenyl)-1H-imidazol-5-yl]pyridine

> <PUBCHEM_IUPAC_INCHI>
InChI=1S/C21H16FN3OS/c1-27(26)18-8-4-16(5-9-18)21-24-19(14-2-6-17(22)7-3-14)20(25-21)15-10-12-23-13-11-15/h2-13H,1H3,(H,24,25)

> <PUBCHEM_IUPAC_INCHIKEY>
CDMGBJANTYXAIV-UHFFFAOYSA-N

> <PUBCHEM_XLOGP3_AA>
3.2

> <PUBCHEM_EXACT_MASS>
377.1

> <PUBCHEM_MOLECULAR_FORMULA>
C21H16FN3OS

> <PUBCHEM_MOLECULAR_WEIGHT>
377.437

> <PUBCHEM_OPENEYE_CAN_SMILES>
CS(=O)C1=CC=C(C=C1)C2=NC(=C(N2)C3=CC=NC=C3)C4=CC=C(C=C4)F

> <PUBCHEM_OPENEYE_ISO_SMILES>
CS(=O)C1=CC=C(C=C1)C2=NC(=C(N2)C3=CC=NC=C3)C4=CC=C(C=C4)F

> <PUBCHEM_CACTVS_TPSA>
77.8

> <PUBCHEM_MONOISOTOPIC_WEIGHT>
377.1

> <PUBCHEM_TOTAL_CHARGE>
0

> <PUBCHEM_HEAVY_ATOM_COUNT>
27

> <PUBCHEM_ATOM_DEF_STEREO_COUNT>
0

> <PUBCHEM_ATOM_UDEF_STEREO_COUNT>
1

> <PUBCHEM_BOND_DEF_STEREO_COUNT>
0

> <PUBCHEM_BOND_UDEF_STEREO_COUNT>
0

> <PUBCHEM_ISOTOPIC_ATOM_COUNT>
0

> <PUBCHEM_COMPONENT_COUNT>
1

> <PUBCHEM_CACTVS_TAUTO_COUNT>
3

> <PUBCHEM_COORDINATE_TYPE>
1
5
255

> <PUBCHEM_BONDANNOTATIONS>
1  27  3
10  13  8
10  14  8
11  15  8
11  16  8
12  20  8
12  21  8
13  18  8
14  19  8
15  22  8
16  23  8
17  18  8
17  19  8
20  25  8
21  26  8
22  24  8
23  24  8
4  7  8
4  9  8
5  8  8
5  9  8
6  25  8
6  26  8
7  8  8

$$$$
156414
  -OEChem-11021605012D

 59 62  0     0  0  0  0  0  0999 V2000
   10.6418   -5.2772    0.0000 Cl  0  0  0  0  0  0  0  0  0  0  0  0
   12.3853   -4.2973    0.0000 F   0  0  0  0  0  0  0  0  0  0  0  0
    2.0000    4.7772    0.0000 O   0  0  0  0  0  0  0  0  0  0  0  0
    5.4641    0.7772    0.0000 O   0  0  0  0  0  0  0  0  0  0  0  0
    4.5981    0.2772    0.0000 O   0  0  0  0  0  0  0  0  0  0  0  0
    3.7320    3.7772    0.0000 N   0  0  0  0  0  0  0  0  0  0  0  0
    5.4641   -1.2228    0.0000 N   0  0  0  0  0  0  0  0  0  0  0  0
    8.9446   -2.2574    0.0000 N   0  0  0  0  0  0  0  0  0  0  0  0
    8.9561    0.8119    0.0000 N   0  0  0  0  0  0  0  0  0  0  0  0
    9.8622   -0.7436    0.0000 N   0  0  0  0  0  0  0  0  0  0  0  0
    4.5981    3.2772    0.0000 C   0  0  0  0  0  0  0  0  0  0  0  0
    2.8660    3.2772    0.0000 C   0  0  0  0  0  0  0  0  0  0  0  0
    3.7320    4.7772    0.0000 C   0  0  0  0  0  0  0  0  0  0  0  0
    4.5981    2.2772    0.0000 C   0  0  0  0  0  0  0  0  0  0  0  0
    2.0000    3.7772    0.0000 C   0  0  0  0  0  0  0  0  0  0  0  0
    2.8660    5.2772    0.0000 C   0  0  0  0  0  0  0  0  0  0  0  0
    5.4641    1.7772    0.0000 C   0  0  0  0  0  0  0  0  0  0  0  0
    6.3301    0.2772    0.0000 C   0  0  0  0  0  0  0  0  0  0  0  0
    6.3301   -0.7228    0.0000 C   0  0  0  0  0  0  0  0  0  0  0  0
    8.0622   -0.7228    0.0000 C   0  0  0  0  0  0  0  0  0  0  0  0
    7.1962    0.7772    0.0000 C   0  0  0  0  0  0  0  0  0  0  0  0
    8.0622    0.2772    0.0000 C   0  0  0  0  0  0  0  0  0  0  0  0
    7.1962   -1.2228    0.0000 C   0  0  0  0  0  0  0  0  0  0  0  0
    8.9561   -1.2574    0.0000 C   0  0  0  0  0  0  0  0  0  0  0  0
    9.8047   -2.7674    0.0000 C   0  0  0  0  0  0  0  0  0  0  0  0
    9.8622    0.2980    0.0000 C   0  0  0  0  0  0  0  0  0  0  0  0
    4.5981   -0.7228    0.0000 C   0  0  0  0  0  0  0  0  0  0  0  0
    9.7932   -3.7673    0.0000 C   0  0  0  0  0  0  0  0  0  0  0  0
   10.6765   -2.2774    0.0000 C   0  0  0  0  0  0  0  0  0  0  0  0
   10.6534   -4.2773    0.0000 C   0  0  0  0  0  0  0  0  0  0  0  0
   11.5367   -2.7874    0.0000 C   0  0  0  0  0  0  0  0  0  0  0  0
    3.7320   -1.2228    0.0000 C   0  0  0  0  0  0  0  0  0  0  0  0
   11.5251   -3.7873    0.0000 C   0  0  0  0  0  0  0  0  0  0  0  0
    2.8660   -0.7228    0.0000 C   0  0  0  0  0  0  0  0  0  0  0  0
    5.2087    3.1696    0.0000 H   0  0  0  0  0  0  0  0  0  0  0  0
    4.8101    3.8598    0.0000 H   0  0  0  0  0  0  0  0  0  0  0  0
    2.4675    2.8023    0.0000 H   0  0  0  0  0  0  0  0  0  0  0  0
    3.2646    2.8023    0.0000 H   0  0  0  0  0  0  0  0  0  0  0  0
    4.3426    4.6696    0.0000 H   0  0  0  0  0  0  0  0  0  0  0  0
    3.9441    5.3598    0.0000 H   0  0  0  0  0  0  0  0  0  0  0  0
    3.9875    2.3849    0.0000 H   0  0  0  0  0  0  0  0  0  0  0  0
    4.3860    1.6946    0.0000 H   0  0  0  0  0  0  0  0  0  0  0  0
    1.3894    3.8849    0.0000 H   0  0  0  0  0  0  0  0  0  0  0  0
    1.7880    3.1946    0.0000 H   0  0  0  0  0  0  0  0  0  0  0  0
    3.2646    5.7522    0.0000 H   0  0  0  0  0  0  0  0  0  0  0  0
    2.4675    5.7522    0.0000 H   0  0  0  0  0  0  0  0  0  0  0  0
    6.0747    1.6696    0.0000 H   0  0  0  0  0  0  0  0  0  0  0  0
    5.6762    2.3598    0.0000 H   0  0  0  0  0  0  0  0  0  0  0  0
    7.1962    1.3972    0.0000 H   0  0  0  0  0  0  0  0  0  0  0  0
    7.1962   -1.8428    0.0000 H   0  0  0  0  0  0  0  0  0  0  0  0
    5.4641   -1.8428    0.0000 H   0  0  0  0  0  0  0  0  0  0  0  0
    8.4041   -2.5612    0.0000 H   0  0  0  0  0  0  0  0  0  0  0  0
   10.3979    0.6101    0.0000 H   0  0  0  0  0  0  0  0  0  0  0  0
    9.2527   -4.0711    0.0000 H   0  0  0  0  0  0  0  0  0  0  0  0
   10.6837   -1.6574    0.0000 H   0  0  0  0  0  0  0  0  0  0  0  0
   12.0772   -2.4836    0.0000 H   0  0  0  0  0  0  0  0  0  0  0  0
    3.7320   -1.8428    0.0000 H   0  0  0  0  0  0  0  0  0  0  0  0
    2.8660   -0.1028    0.0000 H   0  0  0  0  0  0  0  0  0  0  0  0
    2.3291   -1.0328    0.0000 H   0  0  0  0  0  0  0  0  0  0  0  0
  1 30  1  0  0  0  0
  2 33  1  0  0  0  0
  3 15  1  0  0  0  0
  3 16  1  0  0  0  0
  4 17  1  0  0  0  0
  4 18  1  0  0  0  0
  5 27  2  0  0  0  0
  6 11  1  0  0  0  0
  6 12  1  0  0  0  0
  6 13  1  0  0  0  0
  7 19  1  0  0  0  0
  7 27  1  0  0  0  0
  7 51  1  0  0  0  0
  8 24  1  0  0  0  0
  8 25  1  0  0  0  0
  8 52  1  0  0  0  0
  9 22  1  0  0  0  0
  9 26  2  0  0  0  0
 10 24  2  0  0  0  0
 10 26  1  0  0  0  0
 11 14  1  0  0  0  0
 11 35  1  0  0  0  0
 11 36  1  0  0  0  0
 12 15  1  0  0  0  0
 12 37  1  0  0  0  0
 12 38  1  0  0  0  0
 13 16  1  0  0  0  0
 13 39  1  0  0  0  0
 13 40  1  0  0  0  0
 14 17  1  0  0  0  0
 14 41  1  0  0  0  0
 14 42  1  0  0  0  0
 15 43  1  0  0  0  0
 15 44  1  0  0  0  0
 16 45  1  0  0  0  0
 16 46  1  0  0  0  0
 17 47  1  0  0  0  0
 17 48  1  0  0  0  0
 18 19  2  0  0  0  0
 18 21  1  0  0  0  0
 19 23  1  0  0  0  0
 20 22  1  0  0  0  0
 20 23  2  0  0  0  0
 20 24  1  0  0  0  0
 21 22  2  0  0  0  0
 21 49  1  0  0  0  0
 23 50  1  0  0  0  0
 25 28  2  0  0  0  0
 25 29  1  0  0  0  0
 26 53  1  0  0  0  0
 27 32  1  0  0  0  0
 28 30  1  0  0  0  0
 28 54  1  0  0  0  0
 29 31  2  0  0  0  0
 29 55  1  0  0  0  0
 30 33  2  0  0  0  0
 31 33  1  0  0  0  0
 31 56  1  0  0  0  0
 32 34  2  0  0  0  0
 32 57  1  0  0  0  0
 34 58  1  0  0  0  0
 34 59  1  0  0  0  0
M  END
> <PUBCHEM_COMPOUND_CID>
156414

> <PUBCHEM_COMPOUND_CANONICALIZED>
1

> <PUBCHEM_CACTVS_COMPLEXITY>
671

> <PUBCHEM_CACTVS_HBOND_ACCEPTOR>
8

> <PUBCHEM_CACTVS_HBOND_DONOR>
2

> <PUBCHEM_CACTVS_ROTATABLE_BOND>
9

> <PUBCHEM_CACTVS_SUBSKEYS>
AAADceB7sQAEAAAAAAAAAAAAAAAAAAAAAAA8eIEAAAAAAACx9AAAHwIQAAAADA7hni419vfIFACoAydzdACCiCkxJ6AJ2CA/btiOLuLF+9uHPCju1BvY6KeQ0AMOIACAQgICEABAAQCEBAQgAAAAAAAAAA==

> <PUBCHEM_IUPAC_OPENEYE_NAME>
N-[4-(3-chloro-4-fluoro-anilino)-7-(3-morpholinopropoxy)quinazolin-6-yl]prop-2-enamide

> <PUBCHEM_IUPAC_CAS_NAME>
N-[4-(3-chloro-4-fluoroanilino)-7-[3-(4-morpholinyl)propoxy]-6-quinazolinyl]-2-propenamide

> <PUBCHEM_IUPAC_NAME>
N-[4-(3-chloro-4-fluoroanilino)-7-(3-morpholin-4-ylpropoxy)quinazolin-6-yl]prop-2-enamide

> <PUBCHEM_IUPAC_SYSTEMATIC_NAME>
N-[4-[(3-chloranyl-4-fluoranyl-phenyl)amino]-7-(3-morpholin-4-ylpropoxy)quinazolin-6-yl]prop-2-enamide

> <PUBCHEM_IUPAC_TRADITIONAL_NAME>
N-[4-(3-chloro-4-fluoro-anilino)-7-(3-morpholinopropoxy)quinazolin-6-yl]acrylamide

> <PUBCHEM_IUPAC_INCHI>
InChI=1S/C24H25ClFN5O3/c1-2-23(32)30-21-13-17-20(14-22(21)34-9-3-6-31-7-10-33-11-8-31)27-15-28-24(17)29-16-4-5-19(26)18(25)12-16/h2,4-5,12-15H,1,3,6-11H2,(H,30,32)(H,27,28,29)

> <PUBCHEM_IUPAC_INCHIKEY>
OMZCMEYTWSXEPZ-UHFFFAOYSA-N

> <PUBCHEM_XLOGP3_AA>
3.9

> <PUBCHEM_EXACT_MASS>
485.163

> <PUBCHEM_MOLECULAR_FORMULA>
C24H25ClFN5O3

> <PUBCHEM_MOLECULAR_WEIGHT>
485.944

> <PUBCHEM_OPENEYE_CAN_SMILES>
C=CC(=O)NC1=C(C=C2C(=C1)C(=NC=N2)NC3=CC(=C(C=C3)F)Cl)OCCCN4CCOCC4

> <PUBCHEM_OPENEYE_ISO_SMILES>
C=CC(=O)NC1=C(C=C2C(=C1)C(=NC=N2)NC3=CC(=C(C=C3)F)Cl)OCCCN4CCOCC4

> <PUBCHEM_CACTVS_TPSA>
88.6

> <PUBCHEM_MONOISOTOPIC_WEIGHT>
485.163

> <PUBCHEM_TOTAL_CHARGE>
0

> <PUBCHEM_HEAVY_ATOM_COUNT>
34

> <PUBCHEM_ATOM_DEF_STEREO_COUNT>
0

> <PUBCHEM_ATOM_UDEF_STEREO_COUNT>
0

> <PUBCHEM_BOND_DEF_STEREO_COUNT>
0

> <PUBCHEM_BOND_UDEF_STEREO_COUNT>
0

> <PUBCHEM_ISOTOPIC_ATOM_COUNT>
0

> <PUBCHEM_COMPONENT_COUNT>
1

> <PUBCHEM_CACTVS_TAUTO_COUNT>
6

> <PUBCHEM_COORDINATE_TYPE>
1
5
255

> <PUBCHEM_BONDANNOTATIONS>
10  24  8
10  26  8
18  19  8
18  21  8
19  23  8
20  22  8
20  23  8
20  24  8
21  22  8
25  28  8
25  29  8
28  30  8
29  31  8
30  33  8
31  33  8
9  22  8
9  26  8

$$$$
123631
  -OEChem-11021605012D

 55 58  0     0  0  0  0  0  0999 V2000
   12.3739   -3.5272    0.0000 Cl  0  0  0  0  0  0  0  0  0  0  0  0
   14.1174   -2.5473    0.0000 F   0  0  0  0  0  0  0  0  0  0  0  0
    2.0000   -0.4728    0.0000 O   0  0  0  0  0  0  0  0  0  0  0  0
    7.1962    0.5272    0.0000 O   0  0  0  0  0  0  0  0  0  0  0  0
    7.1962    2.5272    0.0000 O   0  0  0  0  0  0  0  0  0  0  0  0
    3.7320    0.5272    0.0000 N   0  0  0  0  0  0  0  0  0  0  0  0
   10.6766   -0.5074    0.0000 N   0  0  0  0  0  0  0  0  0  0  0  0
   10.6882    2.5619    0.0000 N   0  0  0  0  0  0  0  0  0  0  0  0
   11.5942    1.0064    0.0000 N   0  0  0  0  0  0  0  0  0  0  0  0
    4.5981    1.0272    0.0000 C   0  0  0  0  0  0  0  0  0  0  0  0
    3.7320   -0.4728    0.0000 C   0  0  0  0  0  0  0  0  0  0  0  0
    2.8660    1.0272    0.0000 C   0  0  0  0  0  0  0  0  0  0  0  0
    5.4641    0.5272    0.0000 C   0  0  0  0  0  0  0  0  0  0  0  0
    2.0000    0.5272    0.0000 C   0  0  0  0  0  0  0  0  0  0  0  0
    2.8660   -0.9728    0.0000 C   0  0  0  0  0  0  0  0  0  0  0  0
    6.3301    1.0272    0.0000 C   0  0  0  0  0  0  0  0  0  0  0  0
    8.0622    1.0272    0.0000 C   0  0  0  0  0  0  0  0  0  0  0  0
    9.7942    1.0272    0.0000 C   0  0  0  0  0  0  0  0  0  0  0  0
    8.9282    0.5272    0.0000 C   0  0  0  0  0  0  0  0  0  0  0  0
    8.0622    2.0272    0.0000 C   0  0  0  0  0  0  0  0  0  0  0  0
    9.7942    2.0272    0.0000 C   0  0  0  0  0  0  0  0  0  0  0  0
    8.9282    2.5272    0.0000 C   0  0  0  0  0  0  0  0  0  0  0  0
   10.6882    0.4926    0.0000 C   0  0  0  0  0  0  0  0  0  0  0  0
   11.5368   -1.0174    0.0000 C   0  0  0  0  0  0  0  0  0  0  0  0
   11.5942    2.0480    0.0000 C   0  0  0  0  0  0  0  0  0  0  0  0
    7.1962    3.5272    0.0000 C   0  0  0  0  0  0  0  0  0  0  0  0
   11.5252   -2.0173    0.0000 C   0  0  0  0  0  0  0  0  0  0  0  0
   12.4085   -0.5274    0.0000 C   0  0  0  0  0  0  0  0  0  0  0  0
   12.3854   -2.5273    0.0000 C   0  0  0  0  0  0  0  0  0  0  0  0
   13.2687   -1.0374    0.0000 C   0  0  0  0  0  0  0  0  0  0  0  0
   13.2572   -2.0373    0.0000 C   0  0  0  0  0  0  0  0  0  0  0  0
    4.9966    1.5022    0.0000 H   0  0  0  0  0  0  0  0  0  0  0  0
    4.1996    1.5022    0.0000 H   0  0  0  0  0  0  0  0  0  0  0  0
    3.9441   -1.0554    0.0000 H   0  0  0  0  0  0  0  0  0  0  0  0
    4.3426   -0.3651    0.0000 H   0  0  0  0  0  0  0  0  0  0  0  0
    3.2646    1.5022    0.0000 H   0  0  0  0  0  0  0  0  0  0  0  0
    2.4675    1.5022    0.0000 H   0  0  0  0  0  0  0  0  0  0  0  0
    5.0656    0.0523    0.0000 H   0  0  0  0  0  0  0  0  0  0  0  0
    5.8626    0.0523    0.0000 H   0  0  0  0  0  0  0  0  0  0  0  0
    2.4675   -1.4477    0.0000 H   0  0  0  0  0  0  0  0  0  0  0  0
    3.2646   -1.4477    0.0000 H   0  0  0  0  0  0  0  0  0  0  0  0
    1.7880    1.1098    0.0000 H   0  0  0  0  0  0  0  0  0  0  0  0
    1.3894    0.4195    0.0000 H   0  0  0  0  0  0  0  0  0  0  0  0
    6.7287    1.5022    0.0000 H   0  0  0  0  0  0  0  0  0  0  0  0
    5.9316    1.5022    0.0000 H   0  0  0  0  0  0  0  0  0  0  0  0
    8.9282   -0.0928    0.0000 H   0  0  0  0  0  0  0  0  0  0  0  0
    8.9282    3.1472    0.0000 H   0  0  0  0  0  0  0  0  0  0  0  0
   10.1361   -0.8112    0.0000 H   0  0  0  0  0  0  0  0  0  0  0  0
   12.1300    2.3601    0.0000 H   0  0  0  0  0  0  0  0  0  0  0  0
   10.9847   -2.3211    0.0000 H   0  0  0  0  0  0  0  0  0  0  0  0
   12.4157    0.0925    0.0000 H   0  0  0  0  0  0  0  0  0  0  0  0
    7.8162    3.5272    0.0000 H   0  0  0  0  0  0  0  0  0  0  0  0
    7.1962    4.1472    0.0000 H   0  0  0  0  0  0  0  0  0  0  0  0
    6.5762    3.5272    0.0000 H   0  0  0  0  0  0  0  0  0  0  0  0
   13.8092   -0.7336    0.0000 H   0  0  0  0  0  0  0  0  0  0  0  0
  1 29  1  0  0  0  0
  2 31  1  0  0  0  0
  3 14  1  0  0  0  0
  3 15  1  0  0  0  0
  4 16  1  0  0  0  0
  4 17  1  0  0  0  0
  5 20  1  0  0  0  0
  5 26  1  0  0  0  0
  6 10  1  0  0  0  0
  6 11  1  0  0  0  0
  6 12  1  0  0  0  0
  7 23  1  0  0  0  0
  7 24  1  0  0  0  0
  7 48  1  0  0  0  0
  8 21  1  0  0  0  0
  8 25  2  0  0  0  0
  9 23  2  0  0  0  0
  9 25  1  0  0  0  0
 10 13  1  0  0  0  0
 10 32  1  0  0  0  0
 10 33  1  0  0  0  0
 11 15  1  0  0  0  0
 11 34  1  0  0  0  0
 11 35  1  0  0  0  0
 12 14  1  0  0  0  0
 12 36  1  0  0  0  0
 12 37  1  0  0  0  0
 13 16  1  0  0  0  0
 13 38  1  0  0  0  0
 13 39  1  0  0  0  0
 14 42  1  0  0  0  0
 14 43  1  0  0  0  0
 15 40  1  0  0  0  0
 15 41  1  0  0  0  0
 16 44  1  0  0  0  0
 16 45  1  0  0  0  0
 17 19  1  0  0  0  0
 17 20  2  0  0  0  0
 18 19  2  0  0  0  0
 18 21  1  0  0  0  0
 18 23  1  0  0  0  0
 19 46  1  0  0  0  0
 20 22  1  0  0  0  0
 21 22  2  0  0  0  0
 22 47  1  0  0  0  0
 24 27  2  0  0  0  0
 24 28  1  0  0  0  0
 25 49  1  0  0  0  0
 26 52  1  0  0  0  0
 26 53  1  0  0  0  0
 26 54  1  0  0  0  0
 27 29  1  0  0  0  0
 27 50  1  0  0  0  0
 28 30  2  0  0  0  0
 28 51  1  0  0  0  0
 29 31  2  0  0  0  0
 30 31  1  0  0  0  0
 30 55  1  0  0  0  0
M  END
> <PUBCHEM_COMPOUND_CID>
123631

> <PUBCHEM_COMPOUND_CANONICALIZED>
1

> <PUBCHEM_CACTVS_COMPLEXITY>
545

> <PUBCHEM_CACTVS_HBOND_ACCEPTOR>
8

> <PUBCHEM_CACTVS_HBOND_DONOR>
1

> <PUBCHEM_CACTVS_ROTATABLE_BOND>
8

> <PUBCHEM_CACTVS_SUBSKEYS>
AAADceB7sQAEAAAAAAAAAAAAAAAAAAAAAAA8eIEAAAAAAACx9AAAHwIQAAAADA7hni439vfIFACgAyZjZACCiCkxJ6AJ2CA+7piPLuLF+9uHPCru0Bva6Cew0BMOIEABAgICQABAgAIEBASAAAAAAAAAAA==

> <PUBCHEM_IUPAC_OPENEYE_NAME>
N-(3-chloro-4-fluoro-phenyl)-7-methoxy-6-(3-morpholinopropoxy)quinazolin-4-amine

> <PUBCHEM_IUPAC_CAS_NAME>
N-(3-chloro-4-fluorophenyl)-7-methoxy-6-[3-(4-morpholinyl)propoxy]-4-quinazolinamine

> <PUBCHEM_IUPAC_NAME>
N-(3-chloro-4-fluorophenyl)-7-methoxy-6-(3-morpholin-4-ylpropoxy)quinazolin-4-amine

> <PUBCHEM_IUPAC_SYSTEMATIC_NAME>
N-(3-chloranyl-4-fluoranyl-phenyl)-7-methoxy-6-(3-morpholin-4-ylpropoxy)quinazolin-4-amine

> <PUBCHEM_IUPAC_TRADITIONAL_NAME>
(3-chloro-4-fluoro-phenyl)-[7-methoxy-6-(3-morpholinopropoxy)quinazolin-4-yl]amine

> <PUBCHEM_IUPAC_INCHI>
InChI=1S/C22H24ClFN4O3/c1-29-20-13-19-16(12-21(20)31-8-2-5-28-6-9-30-10-7-28)22(26-14-25-19)27-15-3-4-18(24)17(23)11-15/h3-4,11-14H,2,5-10H2,1H3,(H,25,26,27)

> <PUBCHEM_IUPAC_INCHIKEY>
XGALLCVXEZPNRQ-UHFFFAOYSA-N

> <PUBCHEM_XLOGP3_AA>
4.1

> <PUBCHEM_EXACT_MASS>
446.152

> <PUBCHEM_MOLECULAR_FORMULA>
C22H24ClFN4O3

> <PUBCHEM_MOLECULAR_WEIGHT>
446.907

> <PUBCHEM_OPENEYE_CAN_SMILES>
COC1=C(C=C2C(=C1)N=CN=C2NC3=CC(=C(C=C3)F)Cl)OCCCN4CCOCC4

> <PUBCHEM_OPENEYE_ISO_SMILES>
COC1=C(C=C2C(=C1)N=CN=C2NC3=CC(=C(C=C3)F)Cl)OCCCN4CCOCC4

> <PUBCHEM_CACTVS_TPSA>
68.7

> <PUBCHEM_MONOISOTOPIC_WEIGHT>
446.152

> <PUBCHEM_TOTAL_CHARGE>
0

> <PUBCHEM_HEAVY_ATOM_COUNT>
31

> <PUBCHEM_ATOM_DEF_STEREO_COUNT>
0

> <PUBCHEM_ATOM_UDEF_STEREO_COUNT>
0

> <PUBCHEM_BOND_DEF_STEREO_COUNT>
0

> <PUBCHEM_BOND_UDEF_STEREO_COUNT>
0

> <PUBCHEM_ISOTOPIC_ATOM_COUNT>
0

> <PUBCHEM_COMPONENT_COUNT>
1

> <PUBCHEM_CACTVS_TAUTO_COUNT>
3

> <PUBCHEM_COORDINATE_TYPE>
1
5
255

> <PUBCHEM_BONDANNOTATIONS>
17  19  8
17  20  8
18  19  8
18  21  8
18  23  8
20  22  8
21  22  8
24  27  8
24  28  8
27  29  8
28  30  8
29  31  8
30  31  8
8  21  8
8  25  8
9  23  8
9  25  8

$$$$
3038522
  -OEChem-11021605012D

 83 87  0     0  0  0  0  0  0999 V2000
    5.4641    3.7770    0.0000 O   0  0  0  0  0  0  0  0  0  0  0  0
    8.0381   -2.7473    0.0000 O   0  0  0  0  0  0  0  0  0  0  0  0
    5.4641    1.7770    0.0000 O   0  0  0  0  0  0  0  0  0  0  0  0
    9.7238   -6.7671    0.0000 O   0  0  0  0  0  0  0  0  0  0  0  0
    3.7320    6.7770    0.0000 N   0  0  0  0  0  0  0  0  0  0  0  0
    8.9446    0.7424    0.0000 N   0  0  0  0  0  0  0  0  0  0  0  0
    8.9214   -1.2574    0.0000 N   0  0  0  0  0  0  0  0  0  0  0  0
    9.8622    2.2562    0.0000 N   0  0  0  0  0  0  0  0  0  0  0  0
    9.7700   -2.7674    0.0000 N   0  0  0  0  0  0  0  0  0  0  0  0
    8.9561    3.8117    0.0000 N   0  0  0  0  0  0  0  0  0  0  0  0
    3.7320    7.7770    0.0000 C   0  0  0  0  0  0  0  0  0  0  0  0
    2.8660    6.2770    0.0000 C   0  0  0  0  0  0  0  0  0  0  0  0
    2.8660    8.2770    0.0000 C   0  0  0  0  0  0  0  0  0  0  0  0
    2.0000    6.7770    0.0000 C   0  0  0  0  0  0  0  0  0  0  0  0
    2.0000    7.7770    0.0000 C   0  0  0  0  0  0  0  0  0  0  0  0
    4.5981    6.2770    0.0000 C   0  0  0  0  0  0  0  0  0  0  0  0
    4.5981    5.2770    0.0000 C   0  0  0  0  0  0  0  0  0  0  0  0
    9.8047    0.2324    0.0000 C   0  0  0  0  0  0  0  0  0  0  0  0
    8.0728    0.2525    0.0000 C   0  0  0  0  0  0  0  0  0  0  0  0
    9.7932   -0.7675    0.0000 C   0  0  0  0  0  0  0  0  0  0  0  0
    8.0612   -0.7475    0.0000 C   0  0  0  0  0  0  0  0  0  0  0  0
    5.4641    4.7770    0.0000 C   0  0  0  0  0  0  0  0  0  0  0  0
    8.9561    1.7424    0.0000 C   0  0  0  0  0  0  0  0  0  0  0  0
    8.0622    2.2770    0.0000 C   0  0  0  0  0  0  0  0  0  0  0  0
    8.9099   -2.2574    0.0000 C   0  0  0  0  0  0  0  0  0  0  0  0
    8.0622    3.2770    0.0000 C   0  0  0  0  0  0  0  0  0  0  0  0
    6.3301    3.2770    0.0000 C   0  0  0  0  0  0  0  0  0  0  0  0
    7.1962    1.7770    0.0000 C   0  0  0  0  0  0  0  0  0  0  0  0
    7.1962    3.7770    0.0000 C   0  0  0  0  0  0  0  0  0  0  0  0
    6.3301    2.2770    0.0000 C   0  0  0  0  0  0  0  0  0  0  0  0
    9.8622    3.2978    0.0000 C   0  0  0  0  0  0  0  0  0  0  0  0
    9.7585   -3.7673    0.0000 C   0  0  0  0  0  0  0  0  0  0  0  0
   10.6187   -4.2773    0.0000 C   0  0  0  0  0  0  0  0  0  0  0  0
    8.8867   -4.2572    0.0000 C   0  0  0  0  0  0  0  0  0  0  0  0
    4.5981    2.2770    0.0000 C   0  0  0  0  0  0  0  0  0  0  0  0
   10.6071   -5.2772    0.0000 C   0  0  0  0  0  0  0  0  0  0  0  0
    8.8752   -5.2572    0.0000 C   0  0  0  0  0  0  0  0  0  0  0  0
    9.7354   -5.7672    0.0000 C   0  0  0  0  0  0  0  0  0  0  0  0
   10.5840   -7.2771    0.0000 C   0  0  0  0  0  0  0  0  0  0  0  0
   10.5724   -8.2770    0.0000 C   0  0  0  0  0  0  0  0  0  0  0  0
   11.4557   -6.7871    0.0000 C   0  0  0  0  0  0  0  0  0  0  0  0
    4.3426    7.6694    0.0000 H   0  0  0  0  0  0  0  0  0  0  0  0
    3.9441    8.3596    0.0000 H   0  0  0  0  0  0  0  0  0  0  0  0
    2.4675    5.8021    0.0000 H   0  0  0  0  0  0  0  0  0  0  0  0
    3.2646    5.8021    0.0000 H   0  0  0  0  0  0  0  0  0  0  0  0
    3.2646    8.7520    0.0000 H   0  0  0  0  0  0  0  0  0  0  0  0
    2.4675    8.7520    0.0000 H   0  0  0  0  0  0  0  0  0  0  0  0
    1.3894    6.8847    0.0000 H   0  0  0  0  0  0  0  0  0  0  0  0
    1.7880    6.1944    0.0000 H   0  0  0  0  0  0  0  0  0  0  0  0
    1.7880    8.3596    0.0000 H   0  0  0  0  0  0  0  0  0  0  0  0
    1.3894    7.6694    0.0000 H   0  0  0  0  0  0  0  0  0  0  0  0
    5.2087    6.1694    0.0000 H   0  0  0  0  0  0  0  0  0  0  0  0
    4.8101    6.8596    0.0000 H   0  0  0  0  0  0  0  0  0  0  0  0
    3.9875    5.3847    0.0000 H   0  0  0  0  0  0  0  0  0  0  0  0
    4.3860    4.6944    0.0000 H   0  0  0  0  0  0  0  0  0  0  0  0
    7.8675    0.8375    0.0000 H   0  0  0  0  0  0  0  0  0  0  0  0
    7.4610    0.1519    0.0000 H   0  0  0  0  0  0  0  0  0  0  0  0
   10.4140    0.1177    0.0000 H   0  0  0  0  0  0  0  0  0  0  0  0
   10.0235    0.8126    0.0000 H   0  0  0  0  0  0  0  0  0  0  0  0
    7.4520   -0.6328    0.0000 H   0  0  0  0  0  0  0  0  0  0  0  0
    7.8425   -1.3276    0.0000 H   0  0  0  0  0  0  0  0  0  0  0  0
    9.9985   -1.3525    0.0000 H   0  0  0  0  0  0  0  0  0  0  0  0
   10.4050   -0.6669    0.0000 H   0  0  0  0  0  0  0  0  0  0  0  0
    6.0747    4.6694    0.0000 H   0  0  0  0  0  0  0  0  0  0  0  0
    5.6762    5.3596    0.0000 H   0  0  0  0  0  0  0  0  0  0  0  0
    7.1962    1.1570    0.0000 H   0  0  0  0  0  0  0  0  0  0  0  0
    7.1962    4.3970    0.0000 H   0  0  0  0  0  0  0  0  0  0  0  0
   10.3105   -2.4636    0.0000 H   0  0  0  0  0  0  0  0  0  0  0  0
   10.3979    3.6099    0.0000 H   0  0  0  0  0  0  0  0  0  0  0  0
   11.1592   -3.9735    0.0000 H   0  0  0  0  0  0  0  0  0  0  0  0
    8.3534   -3.9411    0.0000 H   0  0  0  0  0  0  0  0  0  0  0  0
    4.9081    2.8140    0.0000 H   0  0  0  0  0  0  0  0  0  0  0  0
    4.0611    2.5870    0.0000 H   0  0  0  0  0  0  0  0  0  0  0  0
    4.2881    1.7401    0.0000 H   0  0  0  0  0  0  0  0  0  0  0  0
   11.1404   -5.5934    0.0000 H   0  0  0  0  0  0  0  0  0  0  0  0
    8.3347   -5.5610    0.0000 H   0  0  0  0  0  0  0  0  0  0  0  0
   10.0435   -7.5808    0.0000 H   0  0  0  0  0  0  0  0  0  0  0  0
    9.9525   -8.2698    0.0000 H   0  0  0  0  0  0  0  0  0  0  0  0
   10.5653   -8.8970    0.0000 H   0  0  0  0  0  0  0  0  0  0  0  0
   11.1924   -8.2842    0.0000 H   0  0  0  0  0  0  0  0  0  0  0  0
   11.7595   -7.3276    0.0000 H   0  0  0  0  0  0  0  0  0  0  0  0
   11.9962   -6.4834    0.0000 H   0  0  0  0  0  0  0  0  0  0  0  0
   11.1520   -6.2466    0.0000 H   0  0  0  0  0  0  0  0  0  0  0  0
  1 22  1  0  0  0  0
  1 27  1  0  0  0  0
  2 25  2  0  0  0  0
  3 30  1  0  0  0  0
  3 35  1  0  0  0  0
  4 38  1  0  0  0  0
  4 39  1  0  0  0  0
  5 11  1  0  0  0  0
  5 12  1  0  0  0  0
  5 16  1  0  0  0  0
  6 18  1  0  0  0  0
  6 19  1  0  0  0  0
  6 23  1  0  0  0  0
  7 20  1  0  0  0  0
  7 21  1  0  0  0  0
  7 25  1  0  0  0  0
  8 23  2  0  0  0  0
  8 31  1  0  0  0  0
  9 25  1  0  0  0  0
  9 32  1  0  0  0  0
  9 68  1  0  0  0  0
 10 26  1  0  0  0  0
 10 31  2  0  0  0  0
 11 13  1  0  0  0  0
 11 42  1  0  0  0  0
 11 43  1  0  0  0  0
 12 14  1  0  0  0  0
 12 44  1  0  0  0  0
 12 45  1  0  0  0  0
 13 15  1  0  0  0  0
 13 46  1  0  0  0  0
 13 47  1  0  0  0  0
 14 15  1  0  0  0  0
 14 48  1  0  0  0  0
 14 49  1  0  0  0  0
 15 50  1  0  0  0  0
 15 51  1  0  0  0  0
 16 17  1  0  0  0  0
 16 52  1  0  0  0  0
 16 53  1  0  0  0  0
 17 22  1  0  0  0  0
 17 54  1  0  0  0  0
 17 55  1  0  0  0  0
 18 20  1  0  0  0  0
 18 58  1  0  0  0  0
 18 59  1  0  0  0  0
 19 21  1  0  0  0  0
 19 56  1  0  0  0  0
 19 57  1  0  0  0  0
 20 62  1  0  0  0  0
 20 63  1  0  0  0  0
 21 60  1  0  0  0  0
 21 61  1  0  0  0  0
 22 64  1  0  0  0  0
 22 65  1  0  0  0  0
 23 24  1  0  0  0  0
 24 26  1  0  0  0  0
 24 28  2  0  0  0  0
 26 29  2  0  0  0  0
 27 29  1  0  0  0  0
 27 30  2  0  0  0  0
 28 30  1  0  0  0  0
 28 66  1  0  0  0  0
 29 67  1  0  0  0  0
 31 69  1  0  0  0  0
 32 33  2  0  0  0  0
 32 34  1  0  0  0  0
 33 36  1  0  0  0  0
 33 70  1  0  0  0  0
 34 37  2  0  0  0  0
 34 71  1  0  0  0  0
 35 72  1  0  0  0  0
 35 73  1  0  0  0  0
 35 74  1  0  0  0  0
 36 38  2  0  0  0  0
 36 75  1  0  0  0  0
 37 38  1  0  0  0  0
 37 76  1  0  0  0  0
 39 40  1  0  0  0  0
 39 41  1  0  0  0  0
 39 77  1  0  0  0  0
 40 78  1  0  0  0  0
 40 79  1  0  0  0  0
 40 80  1  0  0  0  0
 41 81  1  0  0  0  0
 41 82  1  0  0  0  0
 41 83  1  0  0  0  0
M  END
> <PUBCHEM_COMPOUND_CID>
3038522

> <PUBCHEM_COMPOUND_CANONICALIZED>
1

> <PUBCHEM_CACTVS_COMPLEXITY>
783

> <PUBCHEM_CACTVS_HBOND_ACCEPTOR>
8

> <PUBCHEM_CACTVS_HBOND_DONOR>
1

> <PUBCHEM_CACTVS_ROTATABLE_BOND>
10

> <PUBCHEM_CACTVS_SUBSKEYS>
AAADcfB7uAAAAAAAAAAAAAAAAAAAAAAAAAA8eLECAAAAAACx9AAAHgAQAAAADBzhngY39vfIFACoAyZjdACCiCkxIqAJ2CA+7JiNbqLE+duWPCru1hvK6Cew0BMOIEABAgACQABAgAIEAASAAAAAAAAAAA==

> <PUBCHEM_IUPAC_OPENEYE_NAME>
N-(4-isopropoxyphenyl)-4-[6-methoxy-7-[3-(1-piperidyl)propoxy]quinazolin-4-yl]piperazine-1-carboxamide

> <PUBCHEM_IUPAC_CAS_NAME>
4-[6-methoxy-7-[3-(1-piperidinyl)propoxy]-4-quinazolinyl]-N-(4-propan-2-yloxyphenyl)-1-piperazinecarboxamide

> <PUBCHEM_IUPAC_NAME>
4-[6-methoxy-7-(3-piperidin-1-ylpropoxy)quinazolin-4-yl]-N-(4-propan-2-yloxyphenyl)piperazine-1-carboxamide

> <PUBCHEM_IUPAC_SYSTEMATIC_NAME>
4-[6-methoxy-7-(3-piperidin-1-ylpropoxy)quinazolin-4-yl]-N-(4-propan-2-yloxyphenyl)piperazine-1-carboxamide

> <PUBCHEM_IUPAC_TRADITIONAL_NAME>
N-(4-isopropoxyphenyl)-4-[6-methoxy-7-(3-piperidinopropoxy)quinazolin-4-yl]piperazine-1-carboxamide

> <PUBCHEM_IUPAC_INCHI>
InChI=1S/C31H42N6O4/c1-23(2)41-25-10-8-24(9-11-25)34-31(38)37-17-15-36(16-18-37)30-26-20-28(39-3)29(21-27(26)32-22-33-30)40-19-7-14-35-12-5-4-6-13-35/h8-11,20-23H,4-7,12-19H2,1-3H3,(H,34,38)

> <PUBCHEM_IUPAC_INCHIKEY>
UXXQOJXBIDBUAC-UHFFFAOYSA-N

> <PUBCHEM_XLOGP3_AA>
4.6

> <PUBCHEM_EXACT_MASS>
562.327

> <PUBCHEM_MOLECULAR_FORMULA>
C31H42N6O4

> <PUBCHEM_MOLECULAR_WEIGHT>
562.715

> <PUBCHEM_OPENEYE_CAN_SMILES>
CC(C)OC1=CC=C(C=C1)NC(=O)N2CCN(CC2)C3=NC=NC4=CC(=C(C=C43)OC)OCCCN5CCCCC5

> <PUBCHEM_OPENEYE_ISO_SMILES>
CC(C)OC1=CC=C(C=C1)NC(=O)N2CCN(CC2)C3=NC=NC4=CC(=C(C=C43)OC)OCCCN5CCCCC5

> <PUBCHEM_CACTVS_TPSA>
92.3

> <PUBCHEM_MONOISOTOPIC_WEIGHT>
562.327

> <PUBCHEM_TOTAL_CHARGE>
0

> <PUBCHEM_HEAVY_ATOM_COUNT>
41

> <PUBCHEM_ATOM_DEF_STEREO_COUNT>
0

> <PUBCHEM_ATOM_UDEF_STEREO_COUNT>
0

> <PUBCHEM_BOND_DEF_STEREO_COUNT>
0

> <PUBCHEM_BOND_UDEF_STEREO_COUNT>
0

> <PUBCHEM_ISOTOPIC_ATOM_COUNT>
0

> <PUBCHEM_COMPONENT_COUNT>
1

> <PUBCHEM_CACTVS_TAUTO_COUNT>
2

> <PUBCHEM_COORDINATE_TYPE>
1
5
255

> <PUBCHEM_BONDANNOTATIONS>
10  26  8
10  31  8
23  24  8
24  26  8
24  28  8
26  29  8
27  29  8
27  30  8
28  30  8
32  33  8
32  34  8
33  36  8
34  37  8
36  38  8
37  38  8
8  23  8
8  31  8

$$$$
156422
  -OEChem-11021605012D

 76 80  0     0  0  0  0  0  0999 V2000
    3.8397    6.0855    0.0000 O   0  0  0  0  0  0  0  0  0  0  0  0
    7.3038    3.0855    0.0000 O   0  0  0  0  0  0  0  0  0  0  0  0
    5.5717   -0.9145    0.0000 O   0  0  0  0  0  0  0  0  0  0  0  0
    5.5717    5.0855    0.0000 N   0  0  0  0  0  0  0  0  0  0  0  0
    5.4672   -3.9090    0.0000 N   0  0  0  0  0  0  0  0  0  0  0  0
    4.4890   -4.1169    0.0000 N   0  0  0  0  0  0  0  0  0  0  0  0
    6.4378   -2.4145    0.0000 N   0  0  0  0  0  0  0  0  0  0  0  0
    7.3038   -0.9145    0.0000 N   0  0  0  0  0  0  0  0  0  0  0  0
    2.9945   -3.1464    0.0000 C   0  0  0  0  0  0  0  0  0  0  0  0
    4.7057    4.5855    0.0000 C   0  0  0  0  0  0  0  0  0  0  0  0
    5.5717    6.0855    0.0000 C   0  0  0  0  0  0  0  0  0  0  0  0
    3.9890   -3.2509    0.0000 C   0  0  0  0  0  0  0  0  0  0  0  0
    6.4378    4.5855    0.0000 C   0  0  0  0  0  0  0  0  0  0  0  0
    3.8397    5.0855    0.0000 C   0  0  0  0  0  0  0  0  0  0  0  0
    4.7057    6.5855    0.0000 C   0  0  0  0  0  0  0  0  0  0  0  0
    2.0000   -3.0418    0.0000 C   0  0  0  0  0  0  0  0  0  0  0  0
    2.8900   -4.1409    0.0000 C   0  0  0  0  0  0  0  0  0  0  0  0
    3.0990   -2.1518    0.0000 C   0  0  0  0  0  0  0  0  0  0  0  0
    4.6582   -2.5077    0.0000 C   0  0  0  0  0  0  0  0  0  0  0  0
    6.4378    3.5855    0.0000 C   0  0  0  0  0  0  0  0  0  0  0  0
    5.5717   -2.9145    0.0000 C   0  0  0  0  0  0  0  0  0  0  0  0
    6.2103   -4.5781    0.0000 C   0  0  0  0  0  0  0  0  0  0  0  0
    7.3038    2.0855    0.0000 C   0  0  0  0  0  0  0  0  0  0  0  0
    8.1698    1.5855    0.0000 C   0  0  0  0  0  0  0  0  0  0  0  0
    8.1698    0.5855    0.0000 C   0  0  0  0  0  0  0  0  0  0  0  0
    7.3038    0.0855    0.0000 C   0  0  0  0  0  0  0  0  0  0  0  0
    6.4378    1.5855    0.0000 C   0  0  0  0  0  0  0  0  0  0  0  0
    6.4378   -1.4145    0.0000 C   0  0  0  0  0  0  0  0  0  0  0  0
    7.1614   -4.2691    0.0000 C   0  0  0  0  0  0  0  0  0  0  0  0
    6.0024   -5.5563    0.0000 C   0  0  0  0  0  0  0  0  0  0  0  0
    6.4378    0.5855    0.0000 C   0  0  0  0  0  0  0  0  0  0  0  0
    9.0637    2.1202    0.0000 C   0  0  0  0  0  0  0  0  0  0  0  0
    9.0637    0.0509    0.0000 C   0  0  0  0  0  0  0  0  0  0  0  0
    7.9045   -4.9382    0.0000 C   0  0  0  0  0  0  0  0  0  0  0  0
    6.7456   -6.2254    0.0000 C   0  0  0  0  0  0  0  0  0  0  0  0
    7.6966   -5.9164    0.0000 C   0  0  0  0  0  0  0  0  0  0  0  0
    9.9698    1.6063    0.0000 C   0  0  0  0  0  0  0  0  0  0  0  0
    9.9698    0.5647    0.0000 C   0  0  0  0  0  0  0  0  0  0  0  0
    8.4398   -6.5855    0.0000 C   0  0  0  0  0  0  0  0  0  0  0  0
    6.1823    5.9779    0.0000 H   0  0  0  0  0  0  0  0  0  0  0  0
    5.7838    6.6681    0.0000 H   0  0  0  0  0  0  0  0  0  0  0  0
    4.3072    4.1106    0.0000 H   0  0  0  0  0  0  0  0  0  0  0  0
    5.1042    4.1106    0.0000 H   0  0  0  0  0  0  0  0  0  0  0  0
    7.0483    4.4779    0.0000 H   0  0  0  0  0  0  0  0  0  0  0  0
    6.6498    5.1681    0.0000 H   0  0  0  0  0  0  0  0  0  0  0  0
    5.1042    7.0605    0.0000 H   0  0  0  0  0  0  0  0  0  0  0  0
    4.3072    7.0605    0.0000 H   0  0  0  0  0  0  0  0  0  0  0  0
    3.2291    5.1932    0.0000 H   0  0  0  0  0  0  0  0  0  0  0  0
    3.6276    4.5029    0.0000 H   0  0  0  0  0  0  0  0  0  0  0  0
    2.0648   -2.4252    0.0000 H   0  0  0  0  0  0  0  0  0  0  0  0
    1.3834   -2.9770    0.0000 H   0  0  0  0  0  0  0  0  0  0  0  0
    1.9352   -3.6584    0.0000 H   0  0  0  0  0  0  0  0  0  0  0  0
    2.2734   -4.0761    0.0000 H   0  0  0  0  0  0  0  0  0  0  0  0
    2.8252   -4.7575    0.0000 H   0  0  0  0  0  0  0  0  0  0  0  0
    3.5066   -4.2057    0.0000 H   0  0  0  0  0  0  0  0  0  0  0  0
    3.7156   -2.2166    0.0000 H   0  0  0  0  0  0  0  0  0  0  0  0
    3.1639   -1.5352    0.0000 H   0  0  0  0  0  0  0  0  0  0  0  0
    2.4824   -2.0870    0.0000 H   0  0  0  0  0  0  0  0  0  0  0  0
    4.5293   -1.9013    0.0000 H   0  0  0  0  0  0  0  0  0  0  0  0
    5.8272    3.6932    0.0000 H   0  0  0  0  0  0  0  0  0  0  0  0
    6.2257    3.0029    0.0000 H   0  0  0  0  0  0  0  0  0  0  0  0
    6.9747   -2.7245    0.0000 H   0  0  0  0  0  0  0  0  0  0  0  0
    5.9008    1.8955    0.0000 H   0  0  0  0  0  0  0  0  0  0  0  0
    7.2903   -3.6627    0.0000 H   0  0  0  0  0  0  0  0  0  0  0  0
    5.4128   -5.7479    0.0000 H   0  0  0  0  0  0  0  0  0  0  0  0
    5.9008    0.2755    0.0000 H   0  0  0  0  0  0  0  0  0  0  0  0
    7.8407   -1.2245    0.0000 H   0  0  0  0  0  0  0  0  0  0  0  0
    9.0566    2.7401    0.0000 H   0  0  0  0  0  0  0  0  0  0  0  0
    9.0566   -0.5691    0.0000 H   0  0  0  0  0  0  0  0  0  0  0  0
    8.4942   -4.7466    0.0000 H   0  0  0  0  0  0  0  0  0  0  0  0
    6.6167   -6.8319    0.0000 H   0  0  0  0  0  0  0  0  0  0  0  0
   10.5055    1.9184    0.0000 H   0  0  0  0  0  0  0  0  0  0  0  0
   10.5055    0.2526    0.0000 H   0  0  0  0  0  0  0  0  0  0  0  0
    8.0249   -7.0463    0.0000 H   0  0  0  0  0  0  0  0  0  0  0  0
    8.9005   -7.0004    0.0000 H   0  0  0  0  0  0  0  0  0  0  0  0
    8.8546   -6.1248    0.0000 H   0  0  0  0  0  0  0  0  0  0  0  0
  1 14  1  0  0  0  0
  1 15  1  0  0  0  0
  2 20  1  0  0  0  0
  2 23  1  0  0  0  0
  3 28  2  0  0  0  0
  4 10  1  0  0  0  0
  4 11  1  0  0  0  0
  4 13  1  0  0  0  0
  5  6  1  0  0  0  0
  5 21  1  0  0  0  0
  5 22  1  0  0  0  0
  6 12  2  0  0  0  0
  7 21  1  0  0  0  0
  7 28  1  0  0  0  0
  7 62  1  0  0  0  0
  8 26  1  0  0  0  0
  8 28  1  0  0  0  0
  8 67  1  0  0  0  0
  9 12  1  0  0  0  0
  9 16  1  0  0  0  0
  9 17  1  0  0  0  0
  9 18  1  0  0  0  0
 10 14  1  0  0  0  0
 10 42  1  0  0  0  0
 10 43  1  0  0  0  0
 11 15  1  0  0  0  0
 11 40  1  0  0  0  0
 11 41  1  0  0  0  0
 12 19  1  0  0  0  0
 13 20  1  0  0  0  0
 13 44  1  0  0  0  0
 13 45  1  0  0  0  0
 14 48  1  0  0  0  0
 14 49  1  0  0  0  0
 15 46  1  0  0  0  0
 15 47  1  0  0  0  0
 16 50  1  0  0  0  0
 16 51  1  0  0  0  0
 16 52  1  0  0  0  0
 17 53  1  0  0  0  0
 17 54  1  0  0  0  0
 17 55  1  0  0  0  0
 18 56  1  0  0  0  0
 18 57  1  0  0  0  0
 18 58  1  0  0  0  0
 19 21  2  0  0  0  0
 19 59  1  0  0  0  0
 20 60  1  0  0  0  0
 20 61  1  0  0  0  0
 22 29  2  0  0  0  0
 22 30  1  0  0  0  0
 23 24  1  0  0  0  0
 23 27  2  0  0  0  0
 24 25  1  0  0  0  0
 24 32  2  0  0  0  0
 25 26  1  0  0  0  0
 25 33  2  0  0  0  0
 26 31  2  0  0  0  0
 27 31  1  0  0  0  0
 27 63  1  0  0  0  0
 29 34  1  0  0  0  0
 29 64  1  0  0  0  0
 30 35  2  0  0  0  0
 30 65  1  0  0  0  0
 31 66  1  0  0  0  0
 32 37  1  0  0  0  0
 32 68  1  0  0  0  0
 33 38  1  0  0  0  0
 33 69  1  0  0  0  0
 34 36  2  0  0  0  0
 34 70  1  0  0  0  0
 35 36  1  0  0  0  0
 35 71  1  0  0  0  0
 36 39  1  0  0  0  0
 37 38  2  0  0  0  0
 37 72  1  0  0  0  0
 38 73  1  0  0  0  0
 39 74  1  0  0  0  0
 39 75  1  0  0  0  0
 39 76  1  0  0  0  0
M  END
> <PUBCHEM_COMPOUND_CID>
156422

> <PUBCHEM_COMPOUND_CANONICALIZED>
1

> <PUBCHEM_CACTVS_COMPLEXITY>
777

> <PUBCHEM_CACTVS_HBOND_ACCEPTOR>
5

> <PUBCHEM_CACTVS_HBOND_DONOR>
2

> <PUBCHEM_CACTVS_ROTATABLE_BOND>
8

> <PUBCHEM_CACTVS_SUBSKEYS>
AAADcfB7sAAAAAAAAAAAAAAAAAAAAWAAAAA8YMEAAAAAAADB1AAAHgAYAAAADgzhngYz9tPIBACqAyZidACSDCMhIgAdmCA+bJiOJmLE8duHvCj83RPY6CewwLAPiEABQAAaAAAQgAKAADQAAAAAAAAAAA==

> <PUBCHEM_IUPAC_OPENEYE_NAME>
1-[5-tert-butyl-2-(p-tolyl)pyrazol-3-yl]-3-[4-(2-morpholinoethoxy)-1-naphthyl]urea

> <PUBCHEM_IUPAC_CAS_NAME>
1-[5-tert-butyl-2-(4-methylphenyl)-3-pyrazolyl]-3-[4-[2-(4-morpholinyl)ethoxy]-1-naphthalenyl]urea

> <PUBCHEM_IUPAC_NAME>
1-[5-tert-butyl-2-(4-methylphenyl)pyrazol-3-yl]-3-[4-(2-morpholin-4-ylethoxy)naphthalen-1-yl]urea

> <PUBCHEM_IUPAC_SYSTEMATIC_NAME>
1-[5-tert-butyl-2-(4-methylphenyl)pyrazol-3-yl]-3-[4-(2-morpholin-4-ylethoxy)naphthalen-1-yl]urea

> <PUBCHEM_IUPAC_TRADITIONAL_NAME>
1-[5-tert-butyl-2-(p-tolyl)pyrazol-3-yl]-3-[4-(2-morpholinoethoxy)-1-naphthyl]urea

> <PUBCHEM_IUPAC_INCHI>
InChI=1S/C31H37N5O3/c1-22-9-11-23(12-10-22)36-29(21-28(34-36)31(2,3)4)33-30(37)32-26-13-14-27(25-8-6-5-7-24(25)26)39-20-17-35-15-18-38-19-16-35/h5-14,21H,15-20H2,1-4H3,(H2,32,33,37)

> <PUBCHEM_IUPAC_INCHIKEY>
MVCOAUNKQVWQHZ-UHFFFAOYSA-N

> <PUBCHEM_XLOGP3_AA>
5.7

> <PUBCHEM_EXACT_MASS>
527.29

> <PUBCHEM_MOLECULAR_FORMULA>
C31H37N5O3

> <PUBCHEM_MOLECULAR_WEIGHT>
527.669

> <PUBCHEM_OPENEYE_CAN_SMILES>
CC1=CC=C(C=C1)N2C(=CC(=N2)C(C)(C)C)NC(=O)NC3=CC=C(C4=CC=CC=C43)OCCN5CCOCC5

> <PUBCHEM_OPENEYE_ISO_SMILES>
CC1=CC=C(C=C1)N2C(=CC(=N2)C(C)(C)C)NC(=O)NC3=CC=C(C4=CC=CC=C43)OCCN5CCOCC5

> <PUBCHEM_CACTVS_TPSA>
80.6

> <PUBCHEM_MONOISOTOPIC_WEIGHT>
527.29

> <PUBCHEM_TOTAL_CHARGE>
0

> <PUBCHEM_HEAVY_ATOM_COUNT>
39

> <PUBCHEM_ATOM_DEF_STEREO_COUNT>
0

> <PUBCHEM_ATOM_UDEF_STEREO_COUNT>
0

> <PUBCHEM_BOND_DEF_STEREO_COUNT>
0

> <PUBCHEM_BOND_UDEF_STEREO_COUNT>
0

> <PUBCHEM_ISOTOPIC_ATOM_COUNT>
0

> <PUBCHEM_COMPONENT_COUNT>
1

> <PUBCHEM_CACTVS_TAUTO_COUNT>
7

> <PUBCHEM_COORDINATE_TYPE>
1
5
255

> <PUBCHEM_BONDANNOTATIONS>
12  19  8
19  21  8
22  29  8
22  30  8
23  24  8
23  27  8
24  25  8
24  32  8
25  26  8
25  33  8
26  31  8
27  31  8
29  34  8
30  35  8
32  37  8
33  38  8
34  36  8
35  36  8
37  38  8
5  21  8
5  6  8
6  12  8

$$$$
208908
  -OEChem-11021605012D

 66 70  0     0  0  0  0  0  0999 V2000
   12.3832   -2.2696    0.0000 Cl  0  0  0  0  0  0  0  0  0  0  0  0
    2.9136   -2.3673    0.0000 S   0  0  0  0  0  0  0  0  0  0  0  0
   16.6957   -3.8195    0.0000 F   0  0  0  0  0  0  0  0  0  0  0  0
    7.1010    0.7903    0.0000 O   0  0  0  0  0  0  0  0  0  0  0  0
    2.0000   -1.9605    0.0000 O   0  0  0  0  0  0  0  0  0  0  0  0
    3.8271   -2.7740    0.0000 O   0  0  0  0  0  0  0  0  0  0  0  0
   14.1267   -1.2896    0.0000 O   0  0  0  0  0  0  0  0  0  0  0  0
    4.7215   -0.4356    0.0000 N   0  0  0  0  0  0  0  0  0  0  0  0
   10.6859    0.7503    0.0000 N   0  0  0  0  0  0  0  0  0  0  0  0
   10.6975    3.8195    0.0000 N   0  0  0  0  0  0  0  0  0  0  0  0
   11.6036    2.2640    0.0000 N   0  0  0  0  0  0  0  0  0  0  0  0
    4.3148   -1.3492    0.0000 C   0  0  0  0  0  0  0  0  0  0  0  0
    3.3203   -1.4537    0.0000 C   0  0  0  0  0  0  0  0  0  0  0  0
    5.7161   -0.3311    0.0000 C   0  0  0  0  0  0  0  0  0  0  0  0
    6.1228    0.5824    0.0000 C   0  0  0  0  0  0  0  0  0  0  0  0
    8.0715    2.2849    0.0000 C   0  0  0  0  0  0  0  0  0  0  0  0
    7.2055    1.7849    0.0000 C   0  0  0  0  0  0  0  0  0  0  0  0
    9.8036    2.2849    0.0000 C   0  0  0  0  0  0  0  0  0  0  0  0
    8.9375    1.7849    0.0000 C   0  0  0  0  0  0  0  0  0  0  0  0
    5.6228    1.4485    0.0000 C   0  0  0  0  0  0  0  0  0  0  0  0
    6.2919    2.1916    0.0000 C   0  0  0  0  0  0  0  0  0  0  0  0
    9.8036    3.2849    0.0000 C   0  0  0  0  0  0  0  0  0  0  0  0
    8.0715    3.2849    0.0000 C   0  0  0  0  0  0  0  0  0  0  0  0
   10.6975    1.7502    0.0000 C   0  0  0  0  0  0  0  0  0  0  0  0
    2.5068   -3.2808    0.0000 C   0  0  0  0  0  0  0  0  0  0  0  0
    8.9375    3.7849    0.0000 C   0  0  0  0  0  0  0  0  0  0  0  0
   11.5461    0.2403    0.0000 C   0  0  0  0  0  0  0  0  0  0  0  0
   11.6036    3.3057    0.0000 C   0  0  0  0  0  0  0  0  0  0  0  0
   11.5346   -0.7596    0.0000 C   0  0  0  0  0  0  0  0  0  0  0  0
   12.4179    0.7302    0.0000 C   0  0  0  0  0  0  0  0  0  0  0  0
   13.2665   -0.7797    0.0000 C   0  0  0  0  0  0  0  0  0  0  0  0
   12.3947   -1.2696    0.0000 C   0  0  0  0  0  0  0  0  0  0  0  0
   13.2781    0.2203    0.0000 C   0  0  0  0  0  0  0  0  0  0  0  0
   14.9984   -0.7997    0.0000 C   0  0  0  0  0  0  0  0  0  0  0  0
   15.8586   -1.3097    0.0000 C   0  0  0  0  0  0  0  0  0  0  0  0
   15.8470   -2.3096    0.0000 C   0  0  0  0  0  0  0  0  0  0  0  0
   16.7304   -0.8197    0.0000 C   0  0  0  0  0  0  0  0  0  0  0  0
   16.7072   -2.8196    0.0000 C   0  0  0  0  0  0  0  0  0  0  0  0
   17.5905   -1.3297    0.0000 C   0  0  0  0  0  0  0  0  0  0  0  0
   17.5790   -2.3296    0.0000 C   0  0  0  0  0  0  0  0  0  0  0  0
    4.2716   -1.9677    0.0000 H   0  0  0  0  0  0  0  0  0  0  0  0
    4.9164   -1.4992    0.0000 H   0  0  0  0  0  0  0  0  0  0  0  0
    3.3635   -0.8352    0.0000 H   0  0  0  0  0  0  0  0  0  0  0  0
    2.7187   -1.3037    0.0000 H   0  0  0  0  0  0  0  0  0  0  0  0
    5.6728   -0.9496    0.0000 H   0  0  0  0  0  0  0  0  0  0  0  0
    6.3177   -0.4811    0.0000 H   0  0  0  0  0  0  0  0  0  0  0  0
    4.3571    0.0659    0.0000 H   0  0  0  0  0  0  0  0  0  0  0  0
    8.9375    1.1649    0.0000 H   0  0  0  0  0  0  0  0  0  0  0  0
    5.0062    1.5133    0.0000 H   0  0  0  0  0  0  0  0  0  0  0  0
    6.1630    2.7980    0.0000 H   0  0  0  0  0  0  0  0  0  0  0  0
    7.5346    3.5949    0.0000 H   0  0  0  0  0  0  0  0  0  0  0  0
    1.9404   -3.0286    0.0000 H   0  0  0  0  0  0  0  0  0  0  0  0
    2.2546   -3.8472    0.0000 H   0  0  0  0  0  0  0  0  0  0  0  0
    3.0732   -3.5330    0.0000 H   0  0  0  0  0  0  0  0  0  0  0  0
    8.9375    4.4049    0.0000 H   0  0  0  0  0  0  0  0  0  0  0  0
   10.1454    0.4465    0.0000 H   0  0  0  0  0  0  0  0  0  0  0  0
   10.9941   -1.0634    0.0000 H   0  0  0  0  0  0  0  0  0  0  0  0
   12.4250    1.3502    0.0000 H   0  0  0  0  0  0  0  0  0  0  0  0
   12.1393    3.6178    0.0000 H   0  0  0  0  0  0  0  0  0  0  0  0
   13.8185    0.5240    0.0000 H   0  0  0  0  0  0  0  0  0  0  0  0
   15.4024   -0.3294    0.0000 H   0  0  0  0  0  0  0  0  0  0  0  0
   14.6054   -0.3202    0.0000 H   0  0  0  0  0  0  0  0  0  0  0  0
   15.3066   -2.6134    0.0000 H   0  0  0  0  0  0  0  0  0  0  0  0
   16.7375   -0.1998    0.0000 H   0  0  0  0  0  0  0  0  0  0  0  0
   18.1310   -1.0259    0.0000 H   0  0  0  0  0  0  0  0  0  0  0  0
   18.1123   -2.6458    0.0000 H   0  0  0  0  0  0  0  0  0  0  0  0
  1 32  1  0  0  0  0
  2  5  2  0  0  0  0
  2  6  2  0  0  0  0
  2 13  1  0  0  0  0
  2 25  1  0  0  0  0
  3 38  1  0  0  0  0
  4 15  1  0  0  0  0
  4 17  1  0  0  0  0
  7 31  1  0  0  0  0
  7 34  1  0  0  0  0
  8 12  1  0  0  0  0
  8 14  1  0  0  0  0
  8 47  1  0  0  0  0
  9 24  1  0  0  0  0
  9 27  1  0  0  0  0
  9 56  1  0  0  0  0
 10 22  1  0  0  0  0
 10 28  2  0  0  0  0
 11 24  2  0  0  0  0
 11 28  1  0  0  0  0
 12 13  1  0  0  0  0
 12 41  1  0  0  0  0
 12 42  1  0  0  0  0
 13 43  1  0  0  0  0
 13 44  1  0  0  0  0
 14 15  1  0  0  0  0
 14 45  1  0  0  0  0
 14 46  1  0  0  0  0
 15 20  2  0  0  0  0
 16 17  1  0  0  0  0
 16 19  2  0  0  0  0
 16 23  1  0  0  0  0
 17 21  2  0  0  0  0
 18 19  1  0  0  0  0
 18 22  2  0  0  0  0
 18 24  1  0  0  0  0
 19 48  1  0  0  0  0
 20 21  1  0  0  0  0
 20 49  1  0  0  0  0
 21 50  1  0  0  0  0
 22 26  1  0  0  0  0
 23 26  2  0  0  0  0
 23 51  1  0  0  0  0
 25 52  1  0  0  0  0
 25 53  1  0  0  0  0
 25 54  1  0  0  0  0
 26 55  1  0  0  0  0
 27 29  2  0  0  0  0
 27 30  1  0  0  0  0
 28 59  1  0  0  0  0
 29 32  1  0  0  0  0
 29 57  1  0  0  0  0
 30 33  2  0  0  0  0
 30 58  1  0  0  0  0
 31 32  2  0  0  0  0
 31 33  1  0  0  0  0
 33 60  1  0  0  0  0
 34 35  1  0  0  0  0
 34 61  1  0  0  0  0
 34 62  1  0  0  0  0
 35 36  2  0  0  0  0
 35 37  1  0  0  0  0
 36 38  1  0  0  0  0
 36 63  1  0  0  0  0
 37 39  2  0  0  0  0
 37 64  1  0  0  0  0
 38 40  2  0  0  0  0
 39 40  1  0  0  0  0
 39 65  1  0  0  0  0
 40 66  1  0  0  0  0
M  END
> <PUBCHEM_COMPOUND_CID>
208908

> <PUBCHEM_COMPOUND_CANONICALIZED>
1

> <PUBCHEM_CACTVS_COMPLEXITY>
898

> <PUBCHEM_CACTVS_HBOND_ACCEPTOR>
9

> <PUBCHEM_CACTVS_HBOND_DONOR>
2

> <PUBCHEM_CACTVS_ROTATABLE_BOND>
11

> <PUBCHEM_CACTVS_SUBSKEYS>
AAADceB7uQBEAAAAAAAAAAAAAAAAASAAAAA8YMEAAAAAAACx/AAAHwYQAAAADA7l3i639vbIFEqoA6ZzZHDCiCk1J/AJ2KG+b9iOLvPF//uHPSjs0BPY6ae42fOeCEACAAICCAAQgAQABAQQAAAAAAAAAA==

> <PUBCHEM_IUPAC_OPENEYE_NAME>
N-[3-chloro-4-[(3-fluorophenyl)methoxy]phenyl]-6-[5-[(2-methylsulfonylethylamino)methyl]-2-furyl]quinazolin-4-amine

> <PUBCHEM_IUPAC_CAS_NAME>
N-[3-chloro-4-[(3-fluorophenyl)methoxy]phenyl]-6-[5-[(2-methylsulfonylethylamino)methyl]-2-furanyl]-4-quinazolinamine

> <PUBCHEM_IUPAC_NAME>
N-[3-chloro-4-[(3-fluorophenyl)methoxy]phenyl]-6-[5-[(2-methylsulfonylethylamino)methyl]furan-2-yl]quinazolin-4-amine

> <PUBCHEM_IUPAC_SYSTEMATIC_NAME>
N-[3-chloranyl-4-[(3-fluorophenyl)methoxy]phenyl]-6-[5-[(2-methylsulfonylethylamino)methyl]furan-2-yl]quinazolin-4-amine

> <PUBCHEM_IUPAC_TRADITIONAL_NAME>
[5-[4-[3-chloro-4-(3-fluorobenzyl)oxy-anilino]quinazolin-6-yl]-2-furyl]methyl-(2-mesylethyl)amine

> <PUBCHEM_IUPAC_INCHI>
InChI=1S/C29H26ClFN4O4S/c1-40(36,37)12-11-32-16-23-7-10-27(39-23)20-5-8-26-24(14-20)29(34-18-33-26)35-22-6-9-28(25(30)15-22)38-17-19-3-2-4-21(31)13-19/h2-10,13-15,18,32H,11-12,16-17H2,1H3,(H,33,34,35)

> <PUBCHEM_IUPAC_INCHIKEY>
BCFGMOOMADDAQU-UHFFFAOYSA-N

> <PUBCHEM_XLOGP3_AA>
5.1

> <PUBCHEM_EXACT_MASS>
580.135

> <PUBCHEM_MOLECULAR_FORMULA>
C29H26ClFN4O4S

> <PUBCHEM_MOLECULAR_WEIGHT>
581.059

> <PUBCHEM_OPENEYE_CAN_SMILES>
CS(=O)(=O)CCNCC1=CC=C(O1)C2=CC3=C(C=C2)N=CN=C3NC4=CC(=C(C=C4)OCC5=CC(=CC=C5)F)Cl

> <PUBCHEM_OPENEYE_ISO_SMILES>
CS(=O)(=O)CCNCC1=CC=C(O1)C2=CC3=C(C=C2)N=CN=C3NC4=CC(=C(C=C4)OCC5=CC(=CC=C5)F)Cl

> <PUBCHEM_CACTVS_TPSA>
115

> <PUBCHEM_MONOISOTOPIC_WEIGHT>
580.135

> <PUBCHEM_TOTAL_CHARGE>
0

> <PUBCHEM_HEAVY_ATOM_COUNT>
40

> <PUBCHEM_ATOM_DEF_STEREO_COUNT>
0

> <PUBCHEM_ATOM_UDEF_STEREO_COUNT>
0

> <PUBCHEM_BOND_DEF_STEREO_COUNT>
0

> <PUBCHEM_BOND_UDEF_STEREO_COUNT>
0

> <PUBCHEM_ISOTOPIC_ATOM_COUNT>
0

> <PUBCHEM_COMPONENT_COUNT>
1

> <PUBCHEM_CACTVS_TAUTO_COUNT>
3

> <PUBCHEM_COORDINATE_TYPE>
1
5
255

> <PUBCHEM_BONDANNOTATIONS>
10  22  8
10  28  8
11  24  8
11  28  8
15  20  8
16  19  8
16  23  8
17  21  8
18  19  8
18  22  8
18  24  8
20  21  8
22  26  8
23  26  8
27  29  8
27  30  8
29  32  8
30  33  8
31  32  8
31  33  8
35  36  8
35  37  8
36  38  8
37  39  8
38  40  8
39  40  8
4  15  8
4  17  8

$$$$
3081361
  -OEChem-11021605012D

 54 57  0     0  0  0  0  0  0999 V2000
   12.3853   -4.0373    0.0000 Br  0  0  0  0  0  0  0  0  0  0  0  0
    8.9214   -3.9972    0.0000 F   0  0  0  0  0  0  0  0  0  0  0  0
    5.4641    1.0373    0.0000 O   0  0  0  0  0  0  0  0  0  0  0  0
    5.4641   -0.9627    0.0000 O   0  0  0  0  0  0  0  0  0  0  0  0
    2.8660    3.5373    0.0000 N   0  0  0  0  0  0  0  0  0  0  0  0
    8.9561    1.0719    0.0000 N   0  0  0  0  0  0  0  0  0  0  0  0
    8.9446   -1.9973    0.0000 N   0  0  0  0  0  0  0  0  0  0  0  0
    9.8622   -0.4836    0.0000 N   0  0  0  0  0  0  0  0  0  0  0  0
    4.5981    2.5373    0.0000 C   0  0  0  0  0  0  0  0  0  0  0  0
    4.5981    3.5373    0.0000 C   0  0  0  0  0  0  0  0  0  0  0  0
    3.7320    2.0373    0.0000 C   0  0  0  0  0  0  0  0  0  0  0  0
    2.8660    2.5373    0.0000 C   0  0  0  0  0  0  0  0  0  0  0  0
    3.7320    4.0373    0.0000 C   0  0  0  0  0  0  0  0  0  0  0  0
    5.4641    2.0373    0.0000 C   0  0  0  0  0  0  0  0  0  0  0  0
    2.0000    4.0373    0.0000 C   0  0  0  0  0  0  0  0  0  0  0  0
    6.3301    0.5373    0.0000 C   0  0  0  0  0  0  0  0  0  0  0  0
    6.3301   -0.4627    0.0000 C   0  0  0  0  0  0  0  0  0  0  0  0
    7.1962    1.0373    0.0000 C   0  0  0  0  0  0  0  0  0  0  0  0
    8.0622    0.5373    0.0000 C   0  0  0  0  0  0  0  0  0  0  0  0
    8.0622   -0.4627    0.0000 C   0  0  0  0  0  0  0  0  0  0  0  0
    7.1962   -0.9627    0.0000 C   0  0  0  0  0  0  0  0  0  0  0  0
    8.9561   -0.9974    0.0000 C   0  0  0  0  0  0  0  0  0  0  0  0
    9.8622    0.5581    0.0000 C   0  0  0  0  0  0  0  0  0  0  0  0
    5.4641   -1.9627    0.0000 C   0  0  0  0  0  0  0  0  0  0  0  0
    9.8047   -2.5073    0.0000 C   0  0  0  0  0  0  0  0  0  0  0  0
    9.7932   -3.5072    0.0000 C   0  0  0  0  0  0  0  0  0  0  0  0
   10.6765   -2.0174    0.0000 C   0  0  0  0  0  0  0  0  0  0  0  0
   10.6534   -4.0172    0.0000 C   0  0  0  0  0  0  0  0  0  0  0  0
   11.5367   -2.5273    0.0000 C   0  0  0  0  0  0  0  0  0  0  0  0
   11.5251   -3.5273    0.0000 C   0  0  0  0  0  0  0  0  0  0  0  0
    4.5981    1.9173    0.0000 H   0  0  0  0  0  0  0  0  0  0  0  0
    5.2087    3.4296    0.0000 H   0  0  0  0  0  0  0  0  0  0  0  0
    4.8101    4.1199    0.0000 H   0  0  0  0  0  0  0  0  0  0  0  0
    3.3335    1.5623    0.0000 H   0  0  0  0  0  0  0  0  0  0  0  0
    4.1306    1.5623    0.0000 H   0  0  0  0  0  0  0  0  0  0  0  0
    4.1306    4.5122    0.0000 H   0  0  0  0  0  0  0  0  0  0  0  0
    3.3335    4.5122    0.0000 H   0  0  0  0  0  0  0  0  0  0  0  0
    2.2554    2.6449    0.0000 H   0  0  0  0  0  0  0  0  0  0  0  0
    2.6540    1.9546    0.0000 H   0  0  0  0  0  0  0  0  0  0  0  0
    6.0747    1.9296    0.0000 H   0  0  0  0  0  0  0  0  0  0  0  0
    5.6762    2.6199    0.0000 H   0  0  0  0  0  0  0  0  0  0  0  0
    2.3100    4.5742    0.0000 H   0  0  0  0  0  0  0  0  0  0  0  0
    1.4631    4.3473    0.0000 H   0  0  0  0  0  0  0  0  0  0  0  0
    1.6900    3.5003    0.0000 H   0  0  0  0  0  0  0  0  0  0  0  0
    7.1962    1.6573    0.0000 H   0  0  0  0  0  0  0  0  0  0  0  0
    7.1962   -1.5827    0.0000 H   0  0  0  0  0  0  0  0  0  0  0  0
    8.4041   -2.3011    0.0000 H   0  0  0  0  0  0  0  0  0  0  0  0
   10.3979    0.8701    0.0000 H   0  0  0  0  0  0  0  0  0  0  0  0
    4.8441   -1.9627    0.0000 H   0  0  0  0  0  0  0  0  0  0  0  0
    5.4641   -2.5827    0.0000 H   0  0  0  0  0  0  0  0  0  0  0  0
    6.0841   -1.9627    0.0000 H   0  0  0  0  0  0  0  0  0  0  0  0
   10.6837   -1.3974    0.0000 H   0  0  0  0  0  0  0  0  0  0  0  0
   10.6462   -4.6372    0.0000 H   0  0  0  0  0  0  0  0  0  0  0  0
   12.0772   -2.2236    0.0000 H   0  0  0  0  0  0  0  0  0  0  0  0
  1 30  1  0  0  0  0
  2 26  1  0  0  0  0
  3 14  1  0  0  0  0
  3 16  1  0  0  0  0
  4 17  1  0  0  0  0
  4 24  1  0  0  0  0
  5 12  1  0  0  0  0
  5 13  1  0  0  0  0
  5 15  1  0  0  0  0
  6 19  1  0  0  0  0
  6 23  2  0  0  0  0
  7 22  1  0  0  0  0
  7 25  1  0  0  0  0
  7 47  1  0  0  0  0
  8 22  2  0  0  0  0
  8 23  1  0  0  0  0
  9 10  1  0  0  0  0
  9 11  1  0  0  0  0
  9 14  1  0  0  0  0
  9 31  1  0  0  0  0
 10 13  1  0  0  0  0
 10 32  1  0  0  0  0
 10 33  1  0  0  0  0
 11 12  1  0  0  0  0
 11 34  1  0  0  0  0
 11 35  1  0  0  0  0
 12 38  1  0  0  0  0
 12 39  1  0  0  0  0
 13 36  1  0  0  0  0
 13 37  1  0  0  0  0
 14 40  1  0  0  0  0
 14 41  1  0  0  0  0
 15 42  1  0  0  0  0
 15 43  1  0  0  0  0
 15 44  1  0  0  0  0
 16 17  2  0  0  0  0
 16 18  1  0  0  0  0
 17 21  1  0  0  0  0
 18 19  2  0  0  0  0
 18 45  1  0  0  0  0
 19 20  1  0  0  0  0
 20 21  2  0  0  0  0
 20 22  1  0  0  0  0
 21 46  1  0  0  0  0
 23 48  1  0  0  0  0
 24 49  1  0  0  0  0
 24 50  1  0  0  0  0
 24 51  1  0  0  0  0
 25 26  2  0  0  0  0
 25 27  1  0  0  0  0
 26 28  1  0  0  0  0
 27 29  2  0  0  0  0
 27 52  1  0  0  0  0
 28 30  2  0  0  0  0
 28 53  1  0  0  0  0
 29 30  1  0  0  0  0
 29 54  1  0  0  0  0
M  END
> <PUBCHEM_COMPOUND_CID>
3081361

> <PUBCHEM_COMPOUND_CANONICALIZED>
1

> <PUBCHEM_CACTVS_COMPLEXITY>
539

> <PUBCHEM_CACTVS_HBOND_ACCEPTOR>
7

> <PUBCHEM_CACTVS_HBOND_DONOR>
1

> <PUBCHEM_CACTVS_ROTATABLE_BOND>
6

> <PUBCHEM_CACTVS_SUBSKEYS>
AAADceB7sQAAEAAAAAAAAAAAAAAAAAAAAAA8eIEAAAAAAACx9AAAHwBQAAABrQzhng439vfIFACgAyZjZACCiCkxIqQJ2CA+7LiNLuLE+duGPCru0BvK6jew0BMOIEAhAgACQABAgEIEAASAAAAAAAAAAA==

> <PUBCHEM_IUPAC_OPENEYE_NAME>
N-(4-bromo-2-fluoro-phenyl)-6-methoxy-7-[(1-methyl-4-piperidyl)methoxy]quinazolin-4-amine

> <PUBCHEM_IUPAC_CAS_NAME>
N-(4-bromo-2-fluorophenyl)-6-methoxy-7-[(1-methyl-4-piperidinyl)methoxy]-4-quinazolinamine

> <PUBCHEM_IUPAC_NAME>
N-(4-bromo-2-fluorophenyl)-6-methoxy-7-[(1-methylpiperidin-4-yl)methoxy]quinazolin-4-amine

> <PUBCHEM_IUPAC_SYSTEMATIC_NAME>
N-(4-bromanyl-2-fluoranyl-phenyl)-6-methoxy-7-[(1-methylpiperidin-4-yl)methoxy]quinazolin-4-amine

> <PUBCHEM_IUPAC_TRADITIONAL_NAME>
(4-bromo-2-fluoro-phenyl)-[6-methoxy-7-[(1-methyl-4-piperidyl)methoxy]quinazolin-4-yl]amine

> <PUBCHEM_IUPAC_INCHI>
InChI=1S/C22H24BrFN4O2/c1-28-7-5-14(6-8-28)12-30-21-11-19-16(10-20(21)29-2)22(26-13-25-19)27-18-4-3-15(23)9-17(18)24/h3-4,9-11,13-14H,5-8,12H2,1-2H3,(H,25,26,27)

> <PUBCHEM_IUPAC_INCHIKEY>
UHTHHESEBZOYNR-UHFFFAOYSA-N

> <PUBCHEM_XLOGP3_AA>
4.9

> <PUBCHEM_EXACT_MASS>
474.107

> <PUBCHEM_MOLECULAR_FORMULA>
C22H24BrFN4O2

> <PUBCHEM_MOLECULAR_WEIGHT>
475.362

> <PUBCHEM_OPENEYE_CAN_SMILES>
CN1CCC(CC1)COC2=C(C=C3C(=C2)N=CN=C3NC4=C(C=C(C=C4)Br)F)OC

> <PUBCHEM_OPENEYE_ISO_SMILES>
CN1CCC(CC1)COC2=C(C=C3C(=C2)N=CN=C3NC4=C(C=C(C=C4)Br)F)OC

> <PUBCHEM_CACTVS_TPSA>
59.5

> <PUBCHEM_MONOISOTOPIC_WEIGHT>
474.107

> <PUBCHEM_TOTAL_CHARGE>
0

> <PUBCHEM_HEAVY_ATOM_COUNT>
30

> <PUBCHEM_ATOM_DEF_STEREO_COUNT>
0

> <PUBCHEM_ATOM_UDEF_STEREO_COUNT>
0

> <PUBCHEM_BOND_DEF_STEREO_COUNT>
0

> <PUBCHEM_BOND_UDEF_STEREO_COUNT>
0

> <PUBCHEM_ISOTOPIC_ATOM_COUNT>
0

> <PUBCHEM_COMPONENT_COUNT>
1

> <PUBCHEM_CACTVS_TAUTO_COUNT>
6

> <PUBCHEM_COORDINATE_TYPE>
1
5
255

> <PUBCHEM_BONDANNOTATIONS>
16  17  8
16  18  8
17  21  8
18  19  8
19  20  8
20  21  8
20  22  8
25  26  8
25  27  8
26  28  8
27  29  8
28  30  8
29  30  8
6  19  8
6  23  8
8  22  8
8  23  8

$$$$
11626055
  -OEChem-11021605012D

 43 46  0     0  0  0  0  0  0999 V2000
    2.0000   -2.9283    0.0000 Cl  0  0  0  0  0  0  0  0  0  0  0  0
    5.4641   -2.9283    0.0000 F   0  0  0  0  0  0  0  0  0  0  0  0
    8.1737    4.9283    0.0000 F   0  0  0  0  0  0  0  0  0  0  0  0
    6.3776   -0.3350    0.0000 O   0  0  0  0  0  0  0  0  0  0  0  0
    5.4641   -1.9283    0.0000 O   0  0  0  0  0  0  0  0  0  0  0  0
    4.5981   -0.4283    0.0000 N   0  0  0  0  0  0  0  0  0  0  0  0
    7.0468    0.4081    0.0000 N   0  0  0  0  0  0  0  0  0  0  0  0
    3.8744    1.4263    0.0000 N   0  0  0  0  0  0  0  0  0  0  0  0
    3.3392    3.0736    0.0000 N   0  0  0  0  0  0  0  0  0  0  0  0
    5.5686    1.0662    0.0000 C   0  0  0  0  0  0  0  0  0  0  0  0
    6.5468    1.2741    0.0000 C   0  0  0  0  0  0  0  0  0  0  0  0
    5.4641    0.0717    0.0000 C   0  0  0  0  0  0  0  0  0  0  0  0
    3.7320   -1.9283    0.0000 C   0  0  0  0  0  0  0  0  0  0  0  0
    6.9535    2.1877    0.0000 C   0  0  0  0  0  0  0  0  0  0  0  0
    3.7320   -2.9283    0.0000 C   0  0  0  0  0  0  0  0  0  0  0  0
    4.8255    1.7353    0.0000 C   0  0  0  0  0  0  0  0  0  0  0  0
    4.5981   -1.4283    0.0000 C   0  0  0  0  0  0  0  0  0  0  0  0
    7.9480    2.2922    0.0000 C   0  0  0  0  0  0  0  0  0  0  0  0
    6.3657    2.9967    0.0000 C   0  0  0  0  0  0  0  0  0  0  0  0
    2.8660   -3.4283    0.0000 C   0  0  0  0  0  0  0  0  0  0  0  0
    4.5981   -3.4283    0.0000 C   0  0  0  0  0  0  0  0  0  0  0  0
    5.0334    2.7135    0.0000 C   0  0  0  0  0  0  0  0  0  0  0  0
    8.3548    3.2058    0.0000 C   0  0  0  0  0  0  0  0  0  0  0  0
    6.7725    3.9102    0.0000 C   0  0  0  0  0  0  0  0  0  0  0  0
    2.8660   -4.4283    0.0000 C   0  0  0  0  0  0  0  0  0  0  0  0
    4.5981   -4.4283    0.0000 C   0  0  0  0  0  0  0  0  0  0  0  0
    7.7670    4.0148    0.0000 C   0  0  0  0  0  0  0  0  0  0  0  0
    3.7320   -4.9283    0.0000 C   0  0  0  0  0  0  0  0  0  0  0  0
    4.2902    3.3826    0.0000 C   0  0  0  0  0  0  0  0  0  0  0  0
    3.1313    2.0955    0.0000 C   0  0  0  0  0  0  0  0  0  0  0  0
    3.5200   -1.3457    0.0000 H   0  0  0  0  0  0  0  0  0  0  0  0
    3.1215   -2.0360    0.0000 H   0  0  0  0  0  0  0  0  0  0  0  0
    4.0611   -0.1183    0.0000 H   0  0  0  0  0  0  0  0  0  0  0  0
    8.3125    1.7906    0.0000 H   0  0  0  0  0  0  0  0  0  0  0  0
    5.7491    2.9319    0.0000 H   0  0  0  0  0  0  0  0  0  0  0  0
    5.6230    2.9051    0.0000 H   0  0  0  0  0  0  0  0  0  0  0  0
    8.9714    3.2706    0.0000 H   0  0  0  0  0  0  0  0  0  0  0  0
    6.4080    4.4118    0.0000 H   0  0  0  0  0  0  0  0  0  0  0  0
    2.3291   -4.7383    0.0000 H   0  0  0  0  0  0  0  0  0  0  0  0
    5.1350   -4.7383    0.0000 H   0  0  0  0  0  0  0  0  0  0  0  0
    3.7320   -5.5483    0.0000 H   0  0  0  0  0  0  0  0  0  0  0  0
    4.4192    3.9891    0.0000 H   0  0  0  0  0  0  0  0  0  0  0  0
    2.5416    1.9039    0.0000 H   0  0  0  0  0  0  0  0  0  0  0  0
  1 20  1  0  0  0  0
  2 21  1  0  0  0  0
  3 27  1  0  0  0  0
  4  7  1  0  0  0  0
  4 12  1  0  0  0  0
  5 17  2  0  0  0  0
  6 12  1  0  0  0  0
  6 17  1  0  0  0  0
  6 33  1  0  0  0  0
  7 11  2  0  0  0  0
  8 16  2  0  0  0  0
  8 30  1  0  0  0  0
  9 29  1  0  0  0  0
  9 30  2  0  0  0  0
 10 11  1  0  0  0  0
 10 12  2  0  0  0  0
 10 16  1  0  0  0  0
 11 14  1  0  0  0  0
 13 15  1  0  0  0  0
 13 17  1  0  0  0  0
 13 31  1  0  0  0  0
 13 32  1  0  0  0  0
 14 18  2  0  0  0  0
 14 19  1  0  0  0  0
 15 20  1  0  0  0  0
 15 21  2  0  0  0  0
 16 22  1  0  0  0  0
 18 23  1  0  0  0  0
 18 34  1  0  0  0  0
 19 24  2  0  0  0  0
 19 35  1  0  0  0  0
 20 25  2  0  0  0  0
 21 26  1  0  0  0  0
 22 29  2  0  0  0  0
 22 36  1  0  0  0  0
 23 27  2  0  0  0  0
 23 37  1  0  0  0  0
 24 27  1  0  0  0  0
 24 38  1  0  0  0  0
 25 28  1  0  0  0  0
 25 39  1  0  0  0  0
 26 28  2  0  0  0  0
 26 40  1  0  0  0  0
 28 41  1  0  0  0  0
 29 42  1  0  0  0  0
 30 43  1  0  0  0  0
M  END
> <PUBCHEM_COMPOUND_CID>
11626055

> <PUBCHEM_COMPOUND_CANONICALIZED>
1

> <PUBCHEM_CACTVS_COMPLEXITY>
581

> <PUBCHEM_CACTVS_HBOND_ACCEPTOR>
7

> <PUBCHEM_CACTVS_HBOND_DONOR>
1

> <PUBCHEM_CACTVS_ROTATABLE_BOND>
5

> <PUBCHEM_CACTVS_SUBSKEYS>
AAADccB7sYAEAAAAAAAAAAAAAAAAAWAAAAA8YIAAAAAAAAAB9AAAHwIUAAAADArBniw9lJbYEACpAzV3dgCCgCk1J6Ap2CE8btuILrrB39OENYhu1DvIyWeY2eKOAAAAAAABAAAAAAAAAAIAAAAAAAAAAA==

> <PUBCHEM_IUPAC_OPENEYE_NAME>
2-(2-chloro-6-fluoro-phenyl)-N-[3-(4-fluorophenyl)-4-pyrimidin-4-yl-isoxazol-5-yl]acetamide

> <PUBCHEM_IUPAC_CAS_NAME>
2-(2-chloro-6-fluorophenyl)-N-[3-(4-fluorophenyl)-4-(4-pyrimidinyl)-5-isoxazolyl]acetamide

> <PUBCHEM_IUPAC_NAME>
2-(2-chloro-6-fluorophenyl)-N-[3-(4-fluorophenyl)-4-pyrimidin-4-yl-1,2-oxazol-5-yl]acetamide

> <PUBCHEM_IUPAC_SYSTEMATIC_NAME>
2-(2-chloranyl-6-fluoranyl-phenyl)-N-[3-(4-fluorophenyl)-4-pyrimidin-4-yl-1,2-oxazol-5-yl]ethanamide

> <PUBCHEM_IUPAC_TRADITIONAL_NAME>
2-(2-chloro-6-fluoro-phenyl)-N-[3-(4-fluorophenyl)-4-(4-pyrimidyl)isoxazol-5-yl]acetamide

> <PUBCHEM_IUPAC_INCHI>
InChI=1S/C21H13ClF2N4O2/c22-15-2-1-3-16(24)14(15)10-18(29)27-21-19(17-8-9-25-11-26-17)20(28-30-21)12-4-6-13(23)7-5-12/h1-9,11H,10H2,(H,27,29)

> <PUBCHEM_IUPAC_INCHIKEY>
OHMPXDCOVKOOAN-UHFFFAOYSA-N

> <PUBCHEM_XLOGP3_AA>
3.9

> <PUBCHEM_EXACT_MASS>
426.07

> <PUBCHEM_MOLECULAR_FORMULA>
C21H13ClF2N4O2

> <PUBCHEM_MOLECULAR_WEIGHT>
426.808

> <PUBCHEM_OPENEYE_CAN_SMILES>
C1=CC(=C(C(=C1)Cl)CC(=O)NC2=C(C(=NO2)C3=CC=C(C=C3)F)C4=NC=NC=C4)F

> <PUBCHEM_OPENEYE_ISO_SMILES>
C1=CC(=C(C(=C1)Cl)CC(=O)NC2=C(C(=NO2)C3=CC=C(C=C3)F)C4=NC=NC=C4)F

> <PUBCHEM_CACTVS_TPSA>
80.9

> <PUBCHEM_MONOISOTOPIC_WEIGHT>
426.07

> <PUBCHEM_TOTAL_CHARGE>
0

> <PUBCHEM_HEAVY_ATOM_COUNT>
30

> <PUBCHEM_ATOM_DEF_STEREO_COUNT>
0

> <PUBCHEM_ATOM_UDEF_STEREO_COUNT>
0

> <PUBCHEM_BOND_DEF_STEREO_COUNT>
0

> <PUBCHEM_BOND_UDEF_STEREO_COUNT>
0

> <PUBCHEM_ISOTOPIC_ATOM_COUNT>
0

> <PUBCHEM_COMPONENT_COUNT>
1

> <PUBCHEM_CACTVS_TAUTO_COUNT>
11

> <PUBCHEM_COORDINATE_TYPE>
1
5
255

> <PUBCHEM_BONDANNOTATIONS>
10  11  8
10  12  8
14  18  8
14  19  8
15  20  8
15  21  8
16  22  8
18  23  8
19  24  8
20  25  8
21  26  8
22  29  8
23  27  8
24  27  8
25  28  8
26  28  8
4  12  8
4  7  8
7  11  8
8  16  8
8  30  8
9  29  8
9  30  8

$$$$
1265490
  -OEChem-11021605012D

 46 50  0     0  0  0  0  0  0999 V2000
    7.2452   -2.0299    0.0000 S   0  0  0  0  0  0  0  0  0  0  0  0
    4.6660   -1.5266    0.0000 O   0  0  0  0  0  0  0  0  0  0  0  0
    5.5442    4.0427    0.0000 O   0  0  0  0  0  0  0  0  0  0  0  0
    6.7388   -2.8922    0.0000 O   0  0  0  0  0  0  0  0  0  0  0  0
    7.7516   -1.1676    0.0000 O   0  0  0  0  0  0  0  0  0  0  0  0
    6.4501    2.5218    0.0000 N   0  0  0  0  0  0  0  0  0  0  0  0
    6.3829   -1.5235    0.0000 N   0  0  0  0  0  0  0  0  0  0  0  0
    5.5321    0.9734    0.0000 C   0  0  0  0  0  0  0  0  0  0  0  0
    5.5321   -0.0266    0.0000 C   0  0  0  0  0  0  0  0  0  0  0  0
    4.6660    1.4734    0.0000 C   0  0  0  0  0  0  0  0  0  0  0  0
    6.4421    1.4802    0.0000 C   0  0  0  0  0  0  0  0  0  0  0  0
    3.8000    0.9734    0.0000 C   0  0  0  0  0  0  0  0  0  0  0  0
    6.3903   -0.5235    0.0000 C   0  0  0  0  0  0  0  0  0  0  0  0
    3.8000   -0.0266    0.0000 C   0  0  0  0  0  0  0  0  0  0  0  0
    4.6660   -0.5266    0.0000 C   0  0  0  0  0  0  0  0  0  0  0  0
    4.6500    2.5149    0.0000 C   0  0  0  0  0  0  0  0  0  0  0  0
    7.2814    0.9520    0.0000 C   0  0  0  0  0  0  0  0  0  0  0  0
    7.2558   -0.0394    0.0000 C   0  0  0  0  0  0  0  0  0  0  0  0
    5.5480    3.0427    0.0000 C   0  0  0  0  0  0  0  0  0  0  0  0
    2.9061    1.5081    0.0000 C   0  0  0  0  0  0  0  0  0  0  0  0
    2.9061   -0.5613    0.0000 C   0  0  0  0  0  0  0  0  0  0  0  0
    7.3180    3.0185    0.0000 C   0  0  0  0  0  0  0  0  0  0  0  0
    2.0000    0.9942    0.0000 C   0  0  0  0  0  0  0  0  0  0  0  0
    2.0000   -0.0474    0.0000 C   0  0  0  0  0  0  0  0  0  0  0  0
    8.1075   -2.5363    0.0000 C   0  0  0  0  0  0  0  0  0  0  0  0
    8.1001   -3.5363    0.0000 C   0  0  0  0  0  0  0  0  0  0  0  0
    8.9772   -2.0427    0.0000 C   0  0  0  0  0  0  0  0  0  0  0  0
    8.9624   -4.0427    0.0000 C   0  0  0  0  0  0  0  0  0  0  0  0
    9.8395   -2.5491    0.0000 C   0  0  0  0  0  0  0  0  0  0  0  0
    9.8321   -3.5491    0.0000 C   0  0  0  0  0  0  0  0  0  0  0  0
    4.1095    2.8187    0.0000 H   0  0  0  0  0  0  0  0  0  0  0  0
    7.8280    1.2447    0.0000 H   0  0  0  0  0  0  0  0  0  0  0  0
    7.7865   -0.3599    0.0000 H   0  0  0  0  0  0  0  0  0  0  0  0
    5.8437   -1.8295    0.0000 H   0  0  0  0  0  0  0  0  0  0  0  0
    2.9132    2.1280    0.0000 H   0  0  0  0  0  0  0  0  0  0  0  0
    2.9132   -1.1812    0.0000 H   0  0  0  0  0  0  0  0  0  0  0  0
    7.6260    2.4804    0.0000 H   0  0  0  0  0  0  0  0  0  0  0  0
    7.8562    3.3264    0.0000 H   0  0  0  0  0  0  0  0  0  0  0  0
    7.0101    3.5566    0.0000 H   0  0  0  0  0  0  0  0  0  0  0  0
    1.4643    1.3063    0.0000 H   0  0  0  0  0  0  0  0  0  0  0  0
    1.4643   -0.3595    0.0000 H   0  0  0  0  0  0  0  0  0  0  0  0
    7.5609   -3.8423    0.0000 H   0  0  0  0  0  0  0  0  0  0  0  0
    8.9818   -1.4227    0.0000 H   0  0  0  0  0  0  0  0  0  0  0  0
    8.9578   -4.6626    0.0000 H   0  0  0  0  0  0  0  0  0  0  0  0
   10.3787   -2.2431    0.0000 H   0  0  0  0  0  0  0  0  0  0  0  0
   10.3667   -3.8630    0.0000 H   0  0  0  0  0  0  0  0  0  0  0  0
  1  4  2  0  0  0  0
  1  5  2  0  0  0  0
  1  7  1  0  0  0  0
  1 25  1  0  0  0  0
  2 15  2  0  0  0  0
  3 19  2  0  0  0  0
  6 11  1  0  0  0  0
  6 19  1  0  0  0  0
  6 22  1  0  0  0  0
  7 13  1  0  0  0  0
  7 34  1  0  0  0  0
  8  9  1  0  0  0  0
  8 10  1  0  0  0  0
  8 11  2  0  0  0  0
  9 13  2  0  0  0  0
  9 15  1  0  0  0  0
 10 12  1  0  0  0  0
 10 16  2  0  0  0  0
 11 17  1  0  0  0  0
 12 14  1  0  0  0  0
 12 20  2  0  0  0  0
 13 18  1  0  0  0  0
 14 15  1  0  0  0  0
 14 21  2  0  0  0  0
 16 19  1  0  0  0  0
 16 31  1  0  0  0  0
 17 18  2  0  0  0  0
 17 32  1  0  0  0  0
 18 33  1  0  0  0  0
 20 23  1  0  0  0  0
 20 35  1  0  0  0  0
 21 24  1  0  0  0  0
 21 36  1  0  0  0  0
 22 37  1  0  0  0  0
 22 38  1  0  0  0  0
 22 39  1  0  0  0  0
 23 24  2  0  0  0  0
 23 40  1  0  0  0  0
 24 41  1  0  0  0  0
 25 26  2  0  0  0  0
 25 27  1  0  0  0  0
 26 28  1  0  0  0  0
 26 42  1  0  0  0  0
 27 29  2  0  0  0  0
 27 43  1  0  0  0  0
 28 30  2  0  0  0  0
 28 44  1  0  0  0  0
 29 30  1  0  0  0  0
 29 45  1  0  0  0  0
 30 46  1  0  0  0  0
M  END
> <PUBCHEM_COMPOUND_CID>
1265490

> <PUBCHEM_COMPOUND_CANONICALIZED>
1

> <PUBCHEM_CACTVS_COMPLEXITY>
855

> <PUBCHEM_CACTVS_HBOND_ACCEPTOR>
5

> <PUBCHEM_CACTVS_HBOND_DONOR>
1

> <PUBCHEM_CACTVS_ROTATABLE_BOND>
3

> <PUBCHEM_CACTVS_SUBSKEYS>
AAADceB7OABAAAAAAAAAAAAAAAAAAAAAAAAwYMGCAAAAAADBUAAAHgQQQAAADAyB2AQywYNAAAKIAqVSUHDCABAlAgAIiBkIZMgIIDrAlZGEIYhglgDIyccciMCOgACAQAASAACAAQSAACQAAAAAAAAAAA==

> <PUBCHEM_IUPAC_INCHI>
InChI=1S/C23H16N2O4S/c1-25-19-12-11-18(24-30(28,29)14-7-3-2-4-8-14)22-21(19)17(13-20(25)26)15-9-5-6-10-16(15)23(22)27/h2-13,24H,1H3

> <PUBCHEM_IUPAC_INCHIKEY>
WJSRFFNGNHNJLM-UHFFFAOYSA-N

> <PUBCHEM_XLOGP3_AA>
3.3

> <PUBCHEM_EXACT_MASS>
416.083

> <PUBCHEM_MOLECULAR_FORMULA>
C23H16N2O4S

> <PUBCHEM_MOLECULAR_WEIGHT>
416.451

> <PUBCHEM_OPENEYE_CAN_SMILES>
CN1C2=C3C(=CC1=O)C4=CC=CC=C4C(=O)C3=C(C=C2)NS(=O)(=O)C5=CC=CC=C5

> <PUBCHEM_OPENEYE_ISO_SMILES>
CN1C2=C3C(=CC1=O)C4=CC=CC=C4C(=O)C3=C(C=C2)NS(=O)(=O)C5=CC=CC=C5

> <PUBCHEM_CACTVS_TPSA>
91.9

> <PUBCHEM_MONOISOTOPIC_WEIGHT>
416.083

> <PUBCHEM_TOTAL_CHARGE>
0

> <PUBCHEM_HEAVY_ATOM_COUNT>
30

> <PUBCHEM_ATOM_DEF_STEREO_COUNT>
0

> <PUBCHEM_ATOM_UDEF_STEREO_COUNT>
0

> <PUBCHEM_BOND_DEF_STEREO_COUNT>
0

> <PUBCHEM_BOND_UDEF_STEREO_COUNT>
0

> <PUBCHEM_ISOTOPIC_ATOM_COUNT>
0

> <PUBCHEM_COMPONENT_COUNT>
1

> <PUBCHEM_CACTVS_TAUTO_COUNT>
4

> <PUBCHEM_COORDINATE_TYPE>
1
5
255

> <PUBCHEM_BONDANNOTATIONS>
10  16  8
11  17  8
12  14  8
12  20  8
13  18  8
14  21  8
16  19  8
17  18  8
20  23  8
21  24  8
23  24  8
25  26  8
25  27  8
26  28  8
27  29  8
28  30  8
29  30  8
6  11  8
6  19  8
8  10  8
8  11  8
8  9  8
9  13  8

$$$$
22696508
  -OEChem-11021605012D

 34 37  0     0  0  0  0  0  0999 V2000
    6.3829   -2.6261    0.0000 O   0  0  0  0  0  0  0  0  0  0  0  0
    4.6660   -2.6292    0.0000 O   0  0  0  0  0  0  0  0  0  0  0  0
    5.5442    2.9401    0.0000 O   0  0  0  0  0  0  0  0  0  0  0  0
    2.9180    1.3923    0.0000 O   0  0  0  0  0  0  0  0  0  0  0  0
    6.4501    1.4192    0.0000 N   0  0  0  0  0  0  0  0  0  0  0  0
    5.5321   -0.1292    0.0000 C   0  0  0  0  0  0  0  0  0  0  0  0
    4.6660    0.3708    0.0000 C   0  0  0  0  0  0  0  0  0  0  0  0
    5.5321   -1.1292    0.0000 C   0  0  0  0  0  0  0  0  0  0  0  0
    3.8000   -0.1292    0.0000 C   0  0  0  0  0  0  0  0  0  0  0  0
    6.4421    0.3777    0.0000 C   0  0  0  0  0  0  0  0  0  0  0  0
    3.8000   -1.1292    0.0000 C   0  0  0  0  0  0  0  0  0  0  0  0
    4.6500    1.4123    0.0000 C   0  0  0  0  0  0  0  0  0  0  0  0
    4.6660   -1.6292    0.0000 C   0  0  0  0  0  0  0  0  0  0  0  0
    6.3903   -1.6261    0.0000 C   0  0  0  0  0  0  0  0  0  0  0  0
    5.5480    1.9401    0.0000 C   0  0  0  0  0  0  0  0  0  0  0  0
    7.2814   -0.1506    0.0000 C   0  0  0  0  0  0  0  0  0  0  0  0
    2.9061    0.4055    0.0000 C   0  0  0  0  0  0  0  0  0  0  0  0
    7.2558   -1.1420    0.0000 C   0  0  0  0  0  0  0  0  0  0  0  0
    2.9061   -1.6638    0.0000 C   0  0  0  0  0  0  0  0  0  0  0  0
    3.7782    1.9023    0.0000 C   0  0  0  0  0  0  0  0  0  0  0  0
    2.0000   -0.1084    0.0000 C   0  0  0  0  0  0  0  0  0  0  0  0
    2.0000   -1.1500    0.0000 C   0  0  0  0  0  0  0  0  0  0  0  0
    3.7667    2.9022    0.0000 C   0  0  0  0  0  0  0  0  0  0  0  0
    6.9882    1.7272    0.0000 H   0  0  0  0  0  0  0  0  0  0  0  0
    7.8280    0.1421    0.0000 H   0  0  0  0  0  0  0  0  0  0  0  0
    2.9132    1.0254    0.0000 H   0  0  0  0  0  0  0  0  0  0  0  0
    7.7865   -1.4625    0.0000 H   0  0  0  0  0  0  0  0  0  0  0  0
    2.9132   -2.2838    0.0000 H   0  0  0  0  0  0  0  0  0  0  0  0
    1.4643    0.2037    0.0000 H   0  0  0  0  0  0  0  0  0  0  0  0
    1.4643   -1.4621    0.0000 H   0  0  0  0  0  0  0  0  0  0  0  0
    4.3866    2.9094    0.0000 H   0  0  0  0  0  0  0  0  0  0  0  0
    3.7595    3.5222    0.0000 H   0  0  0  0  0  0  0  0  0  0  0  0
    3.1467    2.8950    0.0000 H   0  0  0  0  0  0  0  0  0  0  0  0
    6.9175   -2.9401    0.0000 H   0  0  0  0  0  0  0  0  0  0  0  0
  1 14  1  0  0  0  0
  1 34  1  0  0  0  0
  2 13  2  0  0  0  0
  3 15  2  0  0  0  0
  4 20  2  0  0  0  0
  5 10  1  0  0  0  0
  5 15  1  0  0  0  0
  5 24  1  0  0  0  0
  6  7  1  0  0  0  0
  6  8  1  0  0  0  0
  6 10  2  0  0  0  0
  7  9  1  0  0  0  0
  7 12  2  0  0  0  0
  8 13  1  0  0  0  0
  8 14  2  0  0  0  0
  9 11  1  0  0  0  0
  9 17  2  0  0  0  0
 10 16  1  0  0  0  0
 11 13  1  0  0  0  0
 11 19  2  0  0  0  0
 12 15  1  0  0  0  0
 12 20  1  0  0  0  0
 14 18  1  0  0  0  0
 16 18  2  0  0  0  0
 16 25  1  0  0  0  0
 17 21  1  0  0  0  0
 17 26  1  0  0  0  0
 18 27  1  0  0  0  0
 19 22  1  0  0  0  0
 19 28  1  0  0  0  0
 20 23  1  0  0  0  0
 21 22  2  0  0  0  0
 21 29  1  0  0  0  0
 22 30  1  0  0  0  0
 23 31  1  0  0  0  0
 23 32  1  0  0  0  0
 23 33  1  0  0  0  0
M  END
> <PUBCHEM_COMPOUND_CID>
22696508

> <PUBCHEM_COMPOUND_CANONICALIZED>
1

> <PUBCHEM_CACTVS_COMPLEXITY>
623

> <PUBCHEM_CACTVS_HBOND_ACCEPTOR>
4

> <PUBCHEM_CACTVS_HBOND_DONOR>
2

> <PUBCHEM_CACTVS_ROTATABLE_BOND>
1

> <PUBCHEM_CACTVS_SUBSKEYS>
AAADccB6OAAAAAAAAAAAAAAAAAAAAAAAAAAwYMEAAAAAAADBQAAAHgAQCAAADAyBmAAyxoLAAgCIAqVSUACCAAAlIgAIiAEGbMgIJj7KlZOEcUhk9BHI2Ye8yPCOgEABQAAaAACAgAaAADQAAAAAAAAAAA==

> <PUBCHEM_IUPAC_INCHI>
InChI=1S/C18H11NO4/c1-8(20)13-14-9-4-2-3-5-10(9)17(22)16-12(21)7-6-11(15(14)16)19-18(13)23/h2-7,21H,1H3,(H,19,23)

> <PUBCHEM_IUPAC_INCHIKEY>
XRMILVDNNSJKDT-UHFFFAOYSA-N

> <PUBCHEM_XLOGP3_AA>
2.1

> <PUBCHEM_EXACT_MASS>
305.069

> <PUBCHEM_MOLECULAR_FORMULA>
C18H11NO4

> <PUBCHEM_MOLECULAR_WEIGHT>
305.289

> <PUBCHEM_OPENEYE_CAN_SMILES>
CC(=O)C1=C2C3=CC=CC=C3C(=O)C4=C(C=CC(=C42)NC1=O)O

> <PUBCHEM_OPENEYE_ISO_SMILES>
CC(=O)C1=C2C3=CC=CC=C3C(=O)C4=C(C=CC(=C42)NC1=O)O

> <PUBCHEM_CACTVS_TPSA>
83.5

> <PUBCHEM_MONOISOTOPIC_WEIGHT>
305.069

> <PUBCHEM_TOTAL_CHARGE>
0

> <PUBCHEM_HEAVY_ATOM_COUNT>
23

> <PUBCHEM_ATOM_DEF_STEREO_COUNT>
0

> <PUBCHEM_ATOM_UDEF_STEREO_COUNT>
0

> <PUBCHEM_BOND_DEF_STEREO_COUNT>
0

> <PUBCHEM_BOND_UDEF_STEREO_COUNT>
0

> <PUBCHEM_ISOTOPIC_ATOM_COUNT>
0

> <PUBCHEM_COMPONENT_COUNT>
1

> <PUBCHEM_CACTVS_TAUTO_COUNT>
36

> <PUBCHEM_COORDINATE_TYPE>
1
5
255

> <PUBCHEM_BONDANNOTATIONS>
10  16  8
11  19  8
12  15  8
14  18  8
16  18  8
17  21  8
19  22  8
21  22  8
5  10  8
5  15  8
6  10  8
6  7  8
6  8  8
7  12  8
8  14  8
9  11  8
9  17  8

$$$$
5548014
  -OEChem-11021605012D

 33 36  0     0  0  0  0  0  0999 V2000
    6.3829   -2.7815    0.0000 Cl  0  0  0  0  0  0  0  0  0  0  0  0
    4.6660   -2.7846    0.0000 O   0  0  0  0  0  0  0  0  0  0  0  0
    5.5442    2.7846    0.0000 O   0  0  0  0  0  0  0  0  0  0  0  0
    2.9180    1.2368    0.0000 O   0  0  0  0  0  0  0  0  0  0  0  0
    6.4501    1.2638    0.0000 N   0  0  0  0  0  0  0  0  0  0  0  0
    5.5321   -0.2846    0.0000 C   0  0  0  0  0  0  0  0  0  0  0  0
    4.6660    0.2154    0.0000 C   0  0  0  0  0  0  0  0  0  0  0  0
    3.8000   -0.2846    0.0000 C   0  0  0  0  0  0  0  0  0  0  0  0
    5.5321   -1.2846    0.0000 C   0  0  0  0  0  0  0  0  0  0  0  0
    6.4421    0.2222    0.0000 C   0  0  0  0  0  0  0  0  0  0  0  0
    3.8000   -1.2846    0.0000 C   0  0  0  0  0  0  0  0  0  0  0  0
    4.6500    1.2569    0.0000 C   0  0  0  0  0  0  0  0  0  0  0  0
    4.6660   -1.7846    0.0000 C   0  0  0  0  0  0  0  0  0  0  0  0
    5.5480    1.7846    0.0000 C   0  0  0  0  0  0  0  0  0  0  0  0
    6.3903   -1.7816    0.0000 C   0  0  0  0  0  0  0  0  0  0  0  0
    7.2814   -0.3060    0.0000 C   0  0  0  0  0  0  0  0  0  0  0  0
    2.9061    0.2500    0.0000 C   0  0  0  0  0  0  0  0  0  0  0  0
    2.9061   -1.8193    0.0000 C   0  0  0  0  0  0  0  0  0  0  0  0
    7.2558   -1.2974    0.0000 C   0  0  0  0  0  0  0  0  0  0  0  0
    3.7782    1.7468    0.0000 C   0  0  0  0  0  0  0  0  0  0  0  0
    2.0000   -0.2638    0.0000 C   0  0  0  0  0  0  0  0  0  0  0  0
    2.0000   -1.3054    0.0000 C   0  0  0  0  0  0  0  0  0  0  0  0
    3.7667    2.7468    0.0000 C   0  0  0  0  0  0  0  0  0  0  0  0
    6.9882    1.5718    0.0000 H   0  0  0  0  0  0  0  0  0  0  0  0
    7.8280   -0.0133    0.0000 H   0  0  0  0  0  0  0  0  0  0  0  0
    2.9132    0.8700    0.0000 H   0  0  0  0  0  0  0  0  0  0  0  0
    2.9132   -2.4392    0.0000 H   0  0  0  0  0  0  0  0  0  0  0  0
    7.7865   -1.6179    0.0000 H   0  0  0  0  0  0  0  0  0  0  0  0
    1.4643    0.0483    0.0000 H   0  0  0  0  0  0  0  0  0  0  0  0
    1.4643   -1.6175    0.0000 H   0  0  0  0  0  0  0  0  0  0  0  0
    4.3866    2.7539    0.0000 H   0  0  0  0  0  0  0  0  0  0  0  0
    3.7595    3.3667    0.0000 H   0  0  0  0  0  0  0  0  0  0  0  0
    3.1467    2.7396    0.0000 H   0  0  0  0  0  0  0  0  0  0  0  0
  1 15  1  0  0  0  0
  2 13  2  0  0  0  0
  3 14  2  0  0  0  0
  4 20  2  0  0  0  0
  5 10  1  0  0  0  0
  5 14  1  0  0  0  0
  5 24  1  0  0  0  0
  6  7  1  0  0  0  0
  6  9  1  0  0  0  0
  6 10  2  0  0  0  0
  7  8  1  0  0  0  0
  7 12  2  0  0  0  0
  8 11  1  0  0  0  0
  8 17  2  0  0  0  0
  9 13  1  0  0  0  0
  9 15  2  0  0  0  0
 10 16  1  0  0  0  0
 11 13  1  0  0  0  0
 11 18  2  0  0  0  0
 12 14  1  0  0  0  0
 12 20  1  0  0  0  0
 15 19  1  0  0  0  0
 16 19  2  0  0  0  0
 16 25  1  0  0  0  0
 17 21  1  0  0  0  0
 17 26  1  0  0  0  0
 18 22  1  0  0  0  0
 18 27  1  0  0  0  0
 19 28  1  0  0  0  0
 20 23  1  0  0  0  0
 21 22  2  0  0  0  0
 21 29  1  0  0  0  0
 22 30  1  0  0  0  0
 23 31  1  0  0  0  0
 23 32  1  0  0  0  0
 23 33  1  0  0  0  0
M  END
> <PUBCHEM_COMPOUND_CID>
5548014

> <PUBCHEM_COMPOUND_CANONICALIZED>
1

> <PUBCHEM_CACTVS_COMPLEXITY>
626

> <PUBCHEM_CACTVS_HBOND_ACCEPTOR>
3

> <PUBCHEM_CACTVS_HBOND_DONOR>
1

> <PUBCHEM_CACTVS_ROTATABLE_BOND>
1

> <PUBCHEM_CACTVS_SUBSKEYS>
AAADccB6MAAEAAAAAAAAAAAAAAAAAAAAAAAwYMEAAAAAAADBQAAAHgIQAAAADA6BmCAywILAAACIAqVSUACCAAAlBwAIiAEAZsgIIDrJl5GEIQhglADIzYcciMCOgABAYAATAACAAITAACYAAAAAAAAAAA==

> <PUBCHEM_IUPAC_INCHI>
InChI=1S/C18H10ClNO3/c1-8(21)13-14-9-4-2-3-5-10(9)17(22)15-11(19)6-7-12(16(14)15)20-18(13)23/h2-7H,1H3,(H,20,23)

> <PUBCHEM_IUPAC_INCHIKEY>
YZXZKIPNMFFZIZ-UHFFFAOYSA-N

> <PUBCHEM_XLOGP3_AA>
2.5

> <PUBCHEM_EXACT_MASS>
323.035

> <PUBCHEM_MOLECULAR_FORMULA>
C18H10ClNO3

> <PUBCHEM_MOLECULAR_WEIGHT>
323.732

> <PUBCHEM_OPENEYE_CAN_SMILES>
CC(=O)C1=C2C3=CC=CC=C3C(=O)C4=C(C=CC(=C42)NC1=O)Cl

> <PUBCHEM_OPENEYE_ISO_SMILES>
CC(=O)C1=C2C3=CC=CC=C3C(=O)C4=C(C=CC(=C42)NC1=O)Cl

> <PUBCHEM_CACTVS_TPSA>
63.2

> <PUBCHEM_MONOISOTOPIC_WEIGHT>
323.035

> <PUBCHEM_TOTAL_CHARGE>
0

> <PUBCHEM_HEAVY_ATOM_COUNT>
23

> <PUBCHEM_ATOM_DEF_STEREO_COUNT>
0

> <PUBCHEM_ATOM_UDEF_STEREO_COUNT>
0

> <PUBCHEM_BOND_DEF_STEREO_COUNT>
0

> <PUBCHEM_BOND_UDEF_STEREO_COUNT>
0

> <PUBCHEM_ISOTOPIC_ATOM_COUNT>
0

> <PUBCHEM_COMPONENT_COUNT>
1

> <PUBCHEM_CACTVS_TAUTO_COUNT>
9

> <PUBCHEM_COORDINATE_TYPE>
1
5
255

> <PUBCHEM_BONDANNOTATIONS>
10  16  8
11  18  8
12  14  8
15  19  8
16  19  8
17  21  8
18  22  8
21  22  8
5  10  8
5  14  8
6  10  8
6  7  8
6  9  8
7  12  8
8  11  8
8  17  8
9  15  8

$$$$
1080353
  -OEChem-11021605012D

 46 50  0     0  0  0  0  0  0999 V2000
    7.2452   -2.0235    0.0000 S   0  0  0  0  0  0  0  0  0  0  0  0
   10.6944   -4.0491    0.0000 F   0  0  0  0  0  0  0  0  0  0  0  0
    4.6660   -1.5202    0.0000 O   0  0  0  0  0  0  0  0  0  0  0  0
    5.5442    4.0491    0.0000 O   0  0  0  0  0  0  0  0  0  0  0  0
    6.7388   -2.8858    0.0000 O   0  0  0  0  0  0  0  0  0  0  0  0
    7.7516   -1.1612    0.0000 O   0  0  0  0  0  0  0  0  0  0  0  0
    6.4501    2.5283    0.0000 N   0  0  0  0  0  0  0  0  0  0  0  0
    6.3829   -1.5171    0.0000 N   0  0  0  0  0  0  0  0  0  0  0  0
    5.5321    0.9798    0.0000 C   0  0  0  0  0  0  0  0  0  0  0  0
    5.5321   -0.0202    0.0000 C   0  0  0  0  0  0  0  0  0  0  0  0
    4.6660    1.4798    0.0000 C   0  0  0  0  0  0  0  0  0  0  0  0
    6.4421    1.4867    0.0000 C   0  0  0  0  0  0  0  0  0  0  0  0
    3.8000    0.9798    0.0000 C   0  0  0  0  0  0  0  0  0  0  0  0
    6.3903   -0.5171    0.0000 C   0  0  0  0  0  0  0  0  0  0  0  0
    3.8000   -0.0202    0.0000 C   0  0  0  0  0  0  0  0  0  0  0  0
    4.6660   -0.5202    0.0000 C   0  0  0  0  0  0  0  0  0  0  0  0
    4.6500    2.5213    0.0000 C   0  0  0  0  0  0  0  0  0  0  0  0
    7.2814    0.9584    0.0000 C   0  0  0  0  0  0  0  0  0  0  0  0
    7.2558   -0.0329    0.0000 C   0  0  0  0  0  0  0  0  0  0  0  0
    5.5480    3.0491    0.0000 C   0  0  0  0  0  0  0  0  0  0  0  0
    2.9061    1.5145    0.0000 C   0  0  0  0  0  0  0  0  0  0  0  0
    2.9061   -0.5548    0.0000 C   0  0  0  0  0  0  0  0  0  0  0  0
    7.3180    3.0249    0.0000 C   0  0  0  0  0  0  0  0  0  0  0  0
    2.0000    1.0006    0.0000 C   0  0  0  0  0  0  0  0  0  0  0  0
    2.0000   -0.0410    0.0000 C   0  0  0  0  0  0  0  0  0  0  0  0
    8.1075   -2.5299    0.0000 C   0  0  0  0  0  0  0  0  0  0  0  0
    8.1001   -3.5298    0.0000 C   0  0  0  0  0  0  0  0  0  0  0  0
    8.9772   -2.0363    0.0000 C   0  0  0  0  0  0  0  0  0  0  0  0
    8.9624   -4.0362    0.0000 C   0  0  0  0  0  0  0  0  0  0  0  0
    9.8395   -2.5427    0.0000 C   0  0  0  0  0  0  0  0  0  0  0  0
    9.8321   -3.5427    0.0000 C   0  0  0  0  0  0  0  0  0  0  0  0
    4.1095    2.8251    0.0000 H   0  0  0  0  0  0  0  0  0  0  0  0
    7.8280    1.2511    0.0000 H   0  0  0  0  0  0  0  0  0  0  0  0
    7.7865   -0.3535    0.0000 H   0  0  0  0  0  0  0  0  0  0  0  0
    5.8437   -1.8231    0.0000 H   0  0  0  0  0  0  0  0  0  0  0  0
    2.9132    2.1344    0.0000 H   0  0  0  0  0  0  0  0  0  0  0  0
    2.9132   -1.1748    0.0000 H   0  0  0  0  0  0  0  0  0  0  0  0
    7.6260    2.4868    0.0000 H   0  0  0  0  0  0  0  0  0  0  0  0
    7.8562    3.3328    0.0000 H   0  0  0  0  0  0  0  0  0  0  0  0
    7.0101    3.5630    0.0000 H   0  0  0  0  0  0  0  0  0  0  0  0
    1.4643    1.3127    0.0000 H   0  0  0  0  0  0  0  0  0  0  0  0
    1.4643   -0.3531    0.0000 H   0  0  0  0  0  0  0  0  0  0  0  0
    7.5609   -3.8359    0.0000 H   0  0  0  0  0  0  0  0  0  0  0  0
    8.9818   -1.4163    0.0000 H   0  0  0  0  0  0  0  0  0  0  0  0
    8.9578   -4.6562    0.0000 H   0  0  0  0  0  0  0  0  0  0  0  0
   10.3787   -2.2367    0.0000 H   0  0  0  0  0  0  0  0  0  0  0  0
  1  5  2  0  0  0  0
  1  6  2  0  0  0  0
  1  8  1  0  0  0  0
  1 26  1  0  0  0  0
  2 31  1  0  0  0  0
  3 16  2  0  0  0  0
  4 20  2  0  0  0  0
  7 12  1  0  0  0  0
  7 20  1  0  0  0  0
  7 23  1  0  0  0  0
  8 14  1  0  0  0  0
  8 35  1  0  0  0  0
  9 10  1  0  0  0  0
  9 11  1  0  0  0  0
  9 12  2  0  0  0  0
 10 14  2  0  0  0  0
 10 16  1  0  0  0  0
 11 13  1  0  0  0  0
 11 17  2  0  0  0  0
 12 18  1  0  0  0  0
 13 15  1  0  0  0  0
 13 21  2  0  0  0  0
 14 19  1  0  0  0  0
 15 16  1  0  0  0  0
 15 22  2  0  0  0  0
 17 20  1  0  0  0  0
 17 32  1  0  0  0  0
 18 19  2  0  0  0  0
 18 33  1  0  0  0  0
 19 34  1  0  0  0  0
 21 24  1  0  0  0  0
 21 36  1  0  0  0  0
 22 25  1  0  0  0  0
 22 37  1  0  0  0  0
 23 38  1  0  0  0  0
 23 39  1  0  0  0  0
 23 40  1  0  0  0  0
 24 25  2  0  0  0  0
 24 41  1  0  0  0  0
 25 42  1  0  0  0  0
 26 27  2  0  0  0  0
 26 28  1  0  0  0  0
 27 29  1  0  0  0  0
 27 43  1  0  0  0  0
 28 30  2  0  0  0  0
 28 44  1  0  0  0  0
 29 31  2  0  0  0  0
 29 45  1  0  0  0  0
 30 31  1  0  0  0  0
 30 46  1  0  0  0  0
M  END
> <PUBCHEM_COMPOUND_CID>
1080353

> <PUBCHEM_COMPOUND_CANONICALIZED>
1

> <PUBCHEM_CACTVS_COMPLEXITY>
890

> <PUBCHEM_CACTVS_HBOND_ACCEPTOR>
6

> <PUBCHEM_CACTVS_HBOND_DONOR>
1

> <PUBCHEM_CACTVS_ROTATABLE_BOND>
3

> <PUBCHEM_CACTVS_SUBSKEYS>
AAADccB7OQBAAAAAAAAAAAAAAAAAAAAAAAAwYMGCAAAAAADBUAAAHwQQQAAADAyB2AwywYNAAAKIAqVSUHDCABAlAgAIiBkIZMgIIDrAlZGEIYhglgDIyccciMCOgACAQAASAACAAQSAACQAAAAAAAAAAA==

> <PUBCHEM_IUPAC_INCHI>
InChI=1S/C23H15FN2O4S/c1-26-19-11-10-18(25-31(29,30)14-8-6-13(24)7-9-14)22-21(19)17(12-20(26)27)15-4-2-3-5-16(15)23(22)28/h2-12,25H,1H3

> <PUBCHEM_IUPAC_INCHIKEY>
BTEJGTMVORRRKC-UHFFFAOYSA-N

> <PUBCHEM_XLOGP3_AA>
3.4

> <PUBCHEM_EXACT_MASS>
434.074

> <PUBCHEM_MOLECULAR_FORMULA>
C23H15FN2O4S

> <PUBCHEM_MOLECULAR_WEIGHT>
434.441

> <PUBCHEM_OPENEYE_CAN_SMILES>
CN1C2=C3C(=CC1=O)C4=CC=CC=C4C(=O)C3=C(C=C2)NS(=O)(=O)C5=CC=C(C=C5)F

> <PUBCHEM_OPENEYE_ISO_SMILES>
CN1C2=C3C(=CC1=O)C4=CC=CC=C4C(=O)C3=C(C=C2)NS(=O)(=O)C5=CC=C(C=C5)F

> <PUBCHEM_CACTVS_TPSA>
91.9

> <PUBCHEM_MONOISOTOPIC_WEIGHT>
434.074

> <PUBCHEM_TOTAL_CHARGE>
0

> <PUBCHEM_HEAVY_ATOM_COUNT>
31

> <PUBCHEM_ATOM_DEF_STEREO_COUNT>
0

> <PUBCHEM_ATOM_UDEF_STEREO_COUNT>
0

> <PUBCHEM_BOND_DEF_STEREO_COUNT>
0

> <PUBCHEM_BOND_UDEF_STEREO_COUNT>
0

> <PUBCHEM_ISOTOPIC_ATOM_COUNT>
0

> <PUBCHEM_COMPONENT_COUNT>
1

> <PUBCHEM_CACTVS_TAUTO_COUNT>
4

> <PUBCHEM_COORDINATE_TYPE>
1
5
255

> <PUBCHEM_BONDANNOTATIONS>
10  14  8
11  17  8
12  18  8
13  15  8
13  21  8
14  19  8
15  22  8
17  20  8
18  19  8
21  24  8
22  25  8
24  25  8
26  27  8
26  28  8
27  29  8
28  30  8
29  31  8
30  31  8
7  12  8
7  20  8
9  10  8
9  11  8
9  12  8

$$$$
1630277
  -OEChem-11021605012D

 49 53  0     0  0  0  0  0  0999 V2000
    6.3829   -3.7625    0.0000 Br  0  0  0  0  0  0  0  0  0  0  0  0
    5.5442    1.8036    0.0000 O   0  0  0  0  0  0  0  0  0  0  0  0
    4.6660   -3.7656    0.0000 O   0  0  0  0  0  0  0  0  0  0  0  0
    3.7782    0.7658    0.0000 N   0  0  0  0  0  0  0  0  0  0  0  0
    6.4501    0.2828    0.0000 N   0  0  0  0  0  0  0  0  0  0  0  0
    3.7667    1.7658    0.0000 C   0  0  0  0  0  0  0  0  0  0  0  0
    4.6268    2.2757    0.0000 C   0  0  0  0  0  0  0  0  0  0  0  0
    2.8949    2.2557    0.0000 C   0  0  0  0  0  0  0  0  0  0  0  0
    4.6153    3.2757    0.0000 C   0  0  0  0  0  0  0  0  0  0  0  0
    2.8834    3.2556    0.0000 C   0  0  0  0  0  0  0  0  0  0  0  0
    3.7435    3.7656    0.0000 C   0  0  0  0  0  0  0  0  0  0  0  0
    4.6500    0.2759    0.0000 C   0  0  0  0  0  0  0  0  0  0  0  0
    4.6660   -0.7656    0.0000 C   0  0  0  0  0  0  0  0  0  0  0  0
    5.5321   -1.2656    0.0000 C   0  0  0  0  0  0  0  0  0  0  0  0
    6.4421   -0.7588    0.0000 C   0  0  0  0  0  0  0  0  0  0  0  0
    5.5480    0.8036    0.0000 C   0  0  0  0  0  0  0  0  0  0  0  0
    3.8000   -1.2656    0.0000 C   0  0  0  0  0  0  0  0  0  0  0  0
    5.5321   -2.2656    0.0000 C   0  0  0  0  0  0  0  0  0  0  0  0
    3.8000   -2.2656    0.0000 C   0  0  0  0  0  0  0  0  0  0  0  0
    4.6660   -2.7656    0.0000 C   0  0  0  0  0  0  0  0  0  0  0  0
    7.2814   -1.2870    0.0000 C   0  0  0  0  0  0  0  0  0  0  0  0
    6.3903   -2.7626    0.0000 C   0  0  0  0  0  0  0  0  0  0  0  0
    2.9061   -0.7310    0.0000 C   0  0  0  0  0  0  0  0  0  0  0  0
    7.3180    0.7795    0.0000 C   0  0  0  0  0  0  0  0  0  0  0  0
    7.2558   -2.2784    0.0000 C   0  0  0  0  0  0  0  0  0  0  0  0
    2.9061   -2.8003    0.0000 C   0  0  0  0  0  0  0  0  0  0  0  0
    2.0000   -1.2448    0.0000 C   0  0  0  0  0  0  0  0  0  0  0  0
    2.0000   -2.2864    0.0000 C   0  0  0  0  0  0  0  0  0  0  0  0
    3.2334    1.4496    0.0000 H   0  0  0  0  0  0  0  0  0  0  0  0
    2.2831    2.3563    0.0000 H   0  0  0  0  0  0  0  0  0  0  0  0
    2.6896    1.6707    0.0000 H   0  0  0  0  0  0  0  0  0  0  0  0
    4.8456    1.6956    0.0000 H   0  0  0  0  0  0  0  0  0  0  0  0
    5.2361    2.3905    0.0000 H   0  0  0  0  0  0  0  0  0  0  0  0
    2.6646    3.8358    0.0000 H   0  0  0  0  0  0  0  0  0  0  0  0
    2.2741    3.1409    0.0000 H   0  0  0  0  0  0  0  0  0  0  0  0
    5.2271    3.1751    0.0000 H   0  0  0  0  0  0  0  0  0  0  0  0
    4.8206    3.8607    0.0000 H   0  0  0  0  0  0  0  0  0  0  0  0
    4.1366    4.2452    0.0000 H   0  0  0  0  0  0  0  0  0  0  0  0
    3.3395    4.2359    0.0000 H   0  0  0  0  0  0  0  0  0  0  0  0
    3.2449    0.4496    0.0000 H   0  0  0  0  0  0  0  0  0  0  0  0
    7.8280   -0.9943    0.0000 H   0  0  0  0  0  0  0  0  0  0  0  0
    2.9132   -0.1110    0.0000 H   0  0  0  0  0  0  0  0  0  0  0  0
    7.6260    0.2413    0.0000 H   0  0  0  0  0  0  0  0  0  0  0  0
    7.8562    1.0874    0.0000 H   0  0  0  0  0  0  0  0  0  0  0  0
    7.0101    1.3176    0.0000 H   0  0  0  0  0  0  0  0  0  0  0  0
    7.7865   -2.5989    0.0000 H   0  0  0  0  0  0  0  0  0  0  0  0
    2.9132   -3.4202    0.0000 H   0  0  0  0  0  0  0  0  0  0  0  0
    1.4643   -0.9327    0.0000 H   0  0  0  0  0  0  0  0  0  0  0  0
    1.4643   -2.5985    0.0000 H   0  0  0  0  0  0  0  0  0  0  0  0
  1 22  1  0  0  0  0
  2 16  2  0  0  0  0
  3 20  2  0  0  0  0
  4  6  1  0  0  0  0
  4 12  1  0  0  0  0
  4 40  1  0  0  0  0
  5 15  1  0  0  0  0
  5 16  1  0  0  0  0
  5 24  1  0  0  0  0
  6  7  1  0  0  0  0
  6  8  1  0  0  0  0
  6 29  1  0  0  0  0
  7  9  1  0  0  0  0
  7 32  1  0  0  0  0
  7 33  1  0  0  0  0
  8 10  1  0  0  0  0
  8 30  1  0  0  0  0
  8 31  1  0  0  0  0
  9 11  1  0  0  0  0
  9 36  1  0  0  0  0
  9 37  1  0  0  0  0
 10 11  1  0  0  0  0
 10 34  1  0  0  0  0
 10 35  1  0  0  0  0
 11 38  1  0  0  0  0
 11 39  1  0  0  0  0
 12 13  2  0  0  0  0
 12 16  1  0  0  0  0
 13 14  1  0  0  0  0
 13 17  1  0  0  0  0
 14 15  2  0  0  0  0
 14 18  1  0  0  0  0
 15 21  1  0  0  0  0
 17 19  1  0  0  0  0
 17 23  2  0  0  0  0
 18 20  1  0  0  0  0
 18 22  2  0  0  0  0
 19 20  1  0  0  0  0
 19 26  2  0  0  0  0
 21 25  2  0  0  0  0
 21 41  1  0  0  0  0
 22 25  1  0  0  0  0
 23 27  1  0  0  0  0
 23 42  1  0  0  0  0
 24 43  1  0  0  0  0
 24 44  1  0  0  0  0
 24 45  1  0  0  0  0
 25 46  1  0  0  0  0
 26 28  1  0  0  0  0
 26 47  1  0  0  0  0
 27 28  2  0  0  0  0
 27 48  1  0  0  0  0
 28 49  1  0  0  0  0
M  END
> <PUBCHEM_COMPOUND_CID>
1630277

> <PUBCHEM_COMPOUND_CANONICALIZED>
1

> <PUBCHEM_CACTVS_COMPLEXITY>
699

> <PUBCHEM_CACTVS_HBOND_ACCEPTOR>
3

> <PUBCHEM_CACTVS_HBOND_DONOR>
1

> <PUBCHEM_CACTVS_ROTATABLE_BOND>
2

> <PUBCHEM_CACTVS_SUBSKEYS>
AAADceB7MAAAEAAAAAAAAAAAAAAAAAAAAAAwYMGCAAAAAADBQAAAHgBQAAABrCzBmAQywIPAAACIAqVSUACCAAAlAgQIiIGIZOgIYDLAlbGUIQhglgDIy5cciMCOgAAgUAASgACAAESgACUAAAAAAAAAAA==

> <PUBCHEM_IUPAC_INCHI>
InChI=1S/C23H21BrN2O2/c1-26-17-12-11-16(24)19-20(17)18(14-9-5-6-10-15(14)22(19)27)21(23(26)28)25-13-7-3-2-4-8-13/h5-6,9-13,25H,2-4,7-8H2,1H3

> <PUBCHEM_IUPAC_INCHIKEY>
CQWSGUJYXVCZBP-UHFFFAOYSA-N

> <PUBCHEM_XLOGP3_AA>
4.9

> <PUBCHEM_EXACT_MASS>
436.079

> <PUBCHEM_MOLECULAR_FORMULA>
C23H21BrN2O2

> <PUBCHEM_MOLECULAR_WEIGHT>
437.337

> <PUBCHEM_OPENEYE_CAN_SMILES>
CN1C2=C3C(=C(C=C2)Br)C(=O)C4=CC=CC=C4C3=C(C1=O)NC5CCCCC5

> <PUBCHEM_OPENEYE_ISO_SMILES>
CN1C2=C3C(=C(C=C2)Br)C(=O)C4=CC=CC=C4C3=C(C1=O)NC5CCCCC5

> <PUBCHEM_CACTVS_TPSA>
49.4

> <PUBCHEM_MONOISOTOPIC_WEIGHT>
436.079

> <PUBCHEM_TOTAL_CHARGE>
0

> <PUBCHEM_HEAVY_ATOM_COUNT>
28

> <PUBCHEM_ATOM_DEF_STEREO_COUNT>
0

> <PUBCHEM_ATOM_UDEF_STEREO_COUNT>
0

> <PUBCHEM_BOND_DEF_STEREO_COUNT>
0

> <PUBCHEM_BOND_UDEF_STEREO_COUNT>
0

> <PUBCHEM_ISOTOPIC_ATOM_COUNT>
0

> <PUBCHEM_COMPONENT_COUNT>
1

> <PUBCHEM_CACTVS_TAUTO_COUNT>
2

> <PUBCHEM_COORDINATE_TYPE>
1
5
255

> <PUBCHEM_BONDANNOTATIONS>
12  13  8
12  16  8
13  14  8
14  15  8
14  18  8
15  21  8
17  19  8
17  23  8
18  22  8
19  26  8
21  25  8
22  25  8
23  27  8
26  28  8
27  28  8
5  15  8
5  16  8

$$$$
6496803
  -OEChem-11021605012D

 49 53  0     0  0  0  0  0  0999 V2000
    7.2452   -2.0299    0.0000 S   0  0  0  0  0  0  0  0  0  0  0  0
    4.6660   -1.5266    0.0000 O   0  0  0  0  0  0  0  0  0  0  0  0
    5.5442    4.0427    0.0000 O   0  0  0  0  0  0  0  0  0  0  0  0
    6.7388   -2.8922    0.0000 O   0  0  0  0  0  0  0  0  0  0  0  0
    7.7516   -1.1676    0.0000 O   0  0  0  0  0  0  0  0  0  0  0  0
    6.4501    2.5218    0.0000 N   0  0  0  0  0  0  0  0  0  0  0  0
    6.3829   -1.5235    0.0000 N   0  0  0  0  0  0  0  0  0  0  0  0
    5.5321    0.9734    0.0000 C   0  0  0  0  0  0  0  0  0  0  0  0
    5.5321   -0.0266    0.0000 C   0  0  0  0  0  0  0  0  0  0  0  0
    4.6660    1.4734    0.0000 C   0  0  0  0  0  0  0  0  0  0  0  0
    6.4421    1.4802    0.0000 C   0  0  0  0  0  0  0  0  0  0  0  0
    3.8000    0.9734    0.0000 C   0  0  0  0  0  0  0  0  0  0  0  0
    6.3903   -0.5235    0.0000 C   0  0  0  0  0  0  0  0  0  0  0  0
    3.8000   -0.0266    0.0000 C   0  0  0  0  0  0  0  0  0  0  0  0
    4.6660   -0.5266    0.0000 C   0  0  0  0  0  0  0  0  0  0  0  0
    7.2814    0.9520    0.0000 C   0  0  0  0  0  0  0  0  0  0  0  0
    4.6500    2.5149    0.0000 C   0  0  0  0  0  0  0  0  0  0  0  0
    7.2558   -0.0394    0.0000 C   0  0  0  0  0  0  0  0  0  0  0  0
    5.5480    3.0427    0.0000 C   0  0  0  0  0  0  0  0  0  0  0  0
    2.9061    1.5081    0.0000 C   0  0  0  0  0  0  0  0  0  0  0  0
    2.9061   -0.5613    0.0000 C   0  0  0  0  0  0  0  0  0  0  0  0
    7.3180    3.0185    0.0000 C   0  0  0  0  0  0  0  0  0  0  0  0
    8.1075   -2.5363    0.0000 C   0  0  0  0  0  0  0  0  0  0  0  0
    2.0000    0.9942    0.0000 C   0  0  0  0  0  0  0  0  0  0  0  0
    2.0000   -0.0474    0.0000 C   0  0  0  0  0  0  0  0  0  0  0  0
    8.1001   -3.5363    0.0000 C   0  0  0  0  0  0  0  0  0  0  0  0
    8.9772   -2.0427    0.0000 C   0  0  0  0  0  0  0  0  0  0  0  0
    8.9624   -4.0427    0.0000 C   0  0  0  0  0  0  0  0  0  0  0  0
    7.2304   -4.0298    0.0000 C   0  0  0  0  0  0  0  0  0  0  0  0
    9.8395   -2.5491    0.0000 C   0  0  0  0  0  0  0  0  0  0  0  0
    9.8321   -3.5491    0.0000 C   0  0  0  0  0  0  0  0  0  0  0  0
    7.8280    1.2447    0.0000 H   0  0  0  0  0  0  0  0  0  0  0  0
    4.1095    2.8187    0.0000 H   0  0  0  0  0  0  0  0  0  0  0  0
    7.7865   -0.3599    0.0000 H   0  0  0  0  0  0  0  0  0  0  0  0
    5.8437   -1.8295    0.0000 H   0  0  0  0  0  0  0  0  0  0  0  0
    2.9132    2.1280    0.0000 H   0  0  0  0  0  0  0  0  0  0  0  0
    2.9132   -1.1812    0.0000 H   0  0  0  0  0  0  0  0  0  0  0  0
    7.6260    2.4804    0.0000 H   0  0  0  0  0  0  0  0  0  0  0  0
    7.8562    3.3264    0.0000 H   0  0  0  0  0  0  0  0  0  0  0  0
    7.0101    3.5566    0.0000 H   0  0  0  0  0  0  0  0  0  0  0  0
    1.4643    1.3063    0.0000 H   0  0  0  0  0  0  0  0  0  0  0  0
    1.4643   -0.3595    0.0000 H   0  0  0  0  0  0  0  0  0  0  0  0
    8.9818   -1.4227    0.0000 H   0  0  0  0  0  0  0  0  0  0  0  0
    8.9578   -4.6626    0.0000 H   0  0  0  0  0  0  0  0  0  0  0  0
    6.9244   -3.4906    0.0000 H   0  0  0  0  0  0  0  0  0  0  0  0
    6.6912   -4.3359    0.0000 H   0  0  0  0  0  0  0  0  0  0  0  0
    7.5364   -4.5690    0.0000 H   0  0  0  0  0  0  0  0  0  0  0  0
   10.3787   -2.2431    0.0000 H   0  0  0  0  0  0  0  0  0  0  0  0
   10.3667   -3.8630    0.0000 H   0  0  0  0  0  0  0  0  0  0  0  0
  1  4  2  0  0  0  0
  1  5  2  0  0  0  0
  1  7  1  0  0  0  0
  1 23  1  0  0  0  0
  2 15  2  0  0  0  0
  3 19  2  0  0  0  0
  6 11  1  0  0  0  0
  6 19  1  0  0  0  0
  6 22  1  0  0  0  0
  7 13  1  0  0  0  0
  7 35  1  0  0  0  0
  8  9  1  0  0  0  0
  8 10  1  0  0  0  0
  8 11  2  0  0  0  0
  9 13  2  0  0  0  0
  9 15  1  0  0  0  0
 10 12  1  0  0  0  0
 10 17  2  0  0  0  0
 11 16  1  0  0  0  0
 12 14  1  0  0  0  0
 12 20  2  0  0  0  0
 13 18  1  0  0  0  0
 14 15  1  0  0  0  0
 14 21  2  0  0  0  0
 16 18  2  0  0  0  0
 16 32  1  0  0  0  0
 17 19  1  0  0  0  0
 17 33  1  0  0  0  0
 18 34  1  0  0  0  0
 20 24  1  0  0  0  0
 20 36  1  0  0  0  0
 21 25  1  0  0  0  0
 21 37  1  0  0  0  0
 22 38  1  0  0  0  0
 22 39  1  0  0  0  0
 22 40  1  0  0  0  0
 23 26  1  0  0  0  0
 23 27  2  0  0  0  0
 24 25  2  0  0  0  0
 24 41  1  0  0  0  0
 25 42  1  0  0  0  0
 26 28  2  0  0  0  0
 26 29  1  0  0  0  0
 27 30  1  0  0  0  0
 27 43  1  0  0  0  0
 28 31  1  0  0  0  0
 28 44  1  0  0  0  0
 29 45  1  0  0  0  0
 29 46  1  0  0  0  0
 29 47  1  0  0  0  0
 30 31  2  0  0  0  0
 30 48  1  0  0  0  0
 31 49  1  0  0  0  0
M  END
> <PUBCHEM_COMPOUND_CID>
6496803

> <PUBCHEM_COMPOUND_CANONICALIZED>
1

> <PUBCHEM_CACTVS_COMPLEXITY>
892

> <PUBCHEM_CACTVS_HBOND_ACCEPTOR>
5

> <PUBCHEM_CACTVS_HBOND_DONOR>
1

> <PUBCHEM_CACTVS_ROTATABLE_BOND>
3

> <PUBCHEM_CACTVS_SUBSKEYS>
AAADceB7OABAAAAAAAAAAAAAAAAAAAAAAAAwYMGCAAAAAADBUAAAHgQQQAAADAyB2AQywYNAAAKIAqVSUHDCABAlAgAIiBkIZMgIIDrAlZGEIYhglgDIyccciMCOgACAQAAWAACAAQSAACwAAAAAAAAAAA==

> <PUBCHEM_IUPAC_INCHI>
InChI=1S/C24H18N2O4S/c1-14-7-3-6-10-20(14)31(29,30)25-18-11-12-19-22-17(13-21(27)26(19)2)15-8-4-5-9-16(15)24(28)23(18)22/h3-13,25H,1-2H3

> <PUBCHEM_IUPAC_INCHIKEY>
WCJGRXPTJBOBLZ-UHFFFAOYSA-N

> <PUBCHEM_XLOGP3_AA>
3.6

> <PUBCHEM_EXACT_MASS>
430.099

> <PUBCHEM_MOLECULAR_FORMULA>
C24H18N2O4S

> <PUBCHEM_MOLECULAR_WEIGHT>
430.478

> <PUBCHEM_OPENEYE_CAN_SMILES>
CC1=CC=CC=C1S(=O)(=O)NC2=C3C4=C(C=C2)N(C(=O)C=C4C5=CC=CC=C5C3=O)C

> <PUBCHEM_OPENEYE_ISO_SMILES>
CC1=CC=CC=C1S(=O)(=O)NC2=C3C4=C(C=C2)N(C(=O)C=C4C5=CC=CC=C5C3=O)C

> <PUBCHEM_CACTVS_TPSA>
91.9

> <PUBCHEM_MONOISOTOPIC_WEIGHT>
430.099

> <PUBCHEM_TOTAL_CHARGE>
0

> <PUBCHEM_HEAVY_ATOM_COUNT>
31

> <PUBCHEM_ATOM_DEF_STEREO_COUNT>
0

> <PUBCHEM_ATOM_UDEF_STEREO_COUNT>
0

> <PUBCHEM_BOND_DEF_STEREO_COUNT>
0

> <PUBCHEM_BOND_UDEF_STEREO_COUNT>
0

> <PUBCHEM_ISOTOPIC_ATOM_COUNT>
0

> <PUBCHEM_COMPONENT_COUNT>
1

> <PUBCHEM_CACTVS_TAUTO_COUNT>
4

> <PUBCHEM_COORDINATE_TYPE>
1
5
255

> <PUBCHEM_BONDANNOTATIONS>
10  17  8
11  16  8
12  14  8
12  20  8
13  18  8
14  21  8
16  18  8
17  19  8
20  24  8
21  25  8
23  26  8
23  27  8
24  25  8
26  28  8
27  30  8
28  31  8
30  31  8
6  11  8
6  19  8
8  10  8
8  11  8
8  9  8
9  13  8

$$$$
18559010
  -OEChem-11021605012D

 51 55  0     0  0  0  0  0  0999 V2000
    7.2452   -1.2767    0.0000 S   0  0  0  0  0  0  0  0  0  0  0  0
    4.6660   -0.7734    0.0000 O   0  0  0  0  0  0  0  0  0  0  0  0
    5.5442    4.7958    0.0000 O   0  0  0  0  0  0  0  0  0  0  0  0
    6.7388   -2.1390    0.0000 O   0  0  0  0  0  0  0  0  0  0  0  0
    7.7516   -0.4144    0.0000 O   0  0  0  0  0  0  0  0  0  0  0  0
    8.0853   -4.7830    0.0000 O   0  5  0  0  0  0  0  0  0  0  0  0
    9.8173   -4.7958    0.0000 O   0  0  0  0  0  0  0  0  0  0  0  0
    6.4501    3.2750    0.0000 N   0  0  0  0  0  0  0  0  0  0  0  0
    6.3829   -0.7703    0.0000 N   0  0  0  0  0  0  0  0  0  0  0  0
    8.9550   -4.2895    0.0000 N   0  3  0  0  0  0  0  0  0  0  0  0
    5.5321    1.7266    0.0000 C   0  0  0  0  0  0  0  0  0  0  0  0
    5.5321    0.7266    0.0000 C   0  0  0  0  0  0  0  0  0  0  0  0
    4.6660    2.2266    0.0000 C   0  0  0  0  0  0  0  0  0  0  0  0
    6.4421    2.2334    0.0000 C   0  0  0  0  0  0  0  0  0  0  0  0
    3.8000    1.7266    0.0000 C   0  0  0  0  0  0  0  0  0  0  0  0
    6.3903    0.2297    0.0000 C   0  0  0  0  0  0  0  0  0  0  0  0
    3.8000    0.7266    0.0000 C   0  0  0  0  0  0  0  0  0  0  0  0
    4.6660    0.2266    0.0000 C   0  0  0  0  0  0  0  0  0  0  0  0
    7.2814    1.7052    0.0000 C   0  0  0  0  0  0  0  0  0  0  0  0
    4.6500    3.2681    0.0000 C   0  0  0  0  0  0  0  0  0  0  0  0
    7.2558    0.7138    0.0000 C   0  0  0  0  0  0  0  0  0  0  0  0
    5.5480    3.7958    0.0000 C   0  0  0  0  0  0  0  0  0  0  0  0
    2.9061    2.2612    0.0000 C   0  0  0  0  0  0  0  0  0  0  0  0
    2.9061    0.1919    0.0000 C   0  0  0  0  0  0  0  0  0  0  0  0
    7.3180    3.7717    0.0000 C   0  0  0  0  0  0  0  0  0  0  0  0
    8.1075   -1.7831    0.0000 C   0  0  0  0  0  0  0  0  0  0  0  0
    2.0000    1.7474    0.0000 C   0  0  0  0  0  0  0  0  0  0  0  0
    2.0000    0.7058    0.0000 C   0  0  0  0  0  0  0  0  0  0  0  0
    8.1001   -2.7831    0.0000 C   0  0  0  0  0  0  0  0  0  0  0  0
    8.9772   -1.2895    0.0000 C   0  0  0  0  0  0  0  0  0  0  0  0
    8.9624   -3.2895    0.0000 C   0  0  0  0  0  0  0  0  0  0  0  0
    9.8321   -2.7959    0.0000 C   0  0  0  0  0  0  0  0  0  0  0  0
    9.8395   -1.7959    0.0000 C   0  0  0  0  0  0  0  0  0  0  0  0
   10.6944   -3.3023    0.0000 C   0  0  0  0  0  0  0  0  0  0  0  0
    7.8280    1.9979    0.0000 H   0  0  0  0  0  0  0  0  0  0  0  0
    4.1095    3.5719    0.0000 H   0  0  0  0  0  0  0  0  0  0  0  0
    7.7865    0.3933    0.0000 H   0  0  0  0  0  0  0  0  0  0  0  0
    5.8437   -1.0763    0.0000 H   0  0  0  0  0  0  0  0  0  0  0  0
    2.9132    2.8812    0.0000 H   0  0  0  0  0  0  0  0  0  0  0  0
    2.9132   -0.4280    0.0000 H   0  0  0  0  0  0  0  0  0  0  0  0
    7.6260    3.2336    0.0000 H   0  0  0  0  0  0  0  0  0  0  0  0
    7.8562    4.0796    0.0000 H   0  0  0  0  0  0  0  0  0  0  0  0
    7.0101    4.3098    0.0000 H   0  0  0  0  0  0  0  0  0  0  0  0
    1.4643    2.0595    0.0000 H   0  0  0  0  0  0  0  0  0  0  0  0
    1.4643    0.3937    0.0000 H   0  0  0  0  0  0  0  0  0  0  0  0
    7.5609   -3.0891    0.0000 H   0  0  0  0  0  0  0  0  0  0  0  0
    8.9818   -0.6695    0.0000 H   0  0  0  0  0  0  0  0  0  0  0  0
   10.3787   -1.4899    0.0000 H   0  0  0  0  0  0  0  0  0  0  0  0
   10.3804   -3.8369    0.0000 H   0  0  0  0  0  0  0  0  0  0  0  0
   11.2290   -3.6163    0.0000 H   0  0  0  0  0  0  0  0  0  0  0  0
   11.0083   -2.7677    0.0000 H   0  0  0  0  0  0  0  0  0  0  0  0
  1  4  2  0  0  0  0
  1  5  2  0  0  0  0
  1  9  1  0  0  0  0
  1 26  1  0  0  0  0
  2 18  2  0  0  0  0
  3 22  2  0  0  0  0
  6 10  1  0  0  0  0
  7 10  2  0  0  0  0
  8 14  1  0  0  0  0
  8 22  1  0  0  0  0
  8 25  1  0  0  0  0
  9 16  1  0  0  0  0
  9 38  1  0  0  0  0
 10 31  1  0  0  0  0
 11 12  1  0  0  0  0
 11 13  1  0  0  0  0
 11 14  2  0  0  0  0
 12 16  2  0  0  0  0
 12 18  1  0  0  0  0
 13 15  1  0  0  0  0
 13 20  2  0  0  0  0
 14 19  1  0  0  0  0
 15 17  1  0  0  0  0
 15 23  2  0  0  0  0
 16 21  1  0  0  0  0
 17 18  1  0  0  0  0
 17 24  2  0  0  0  0
 19 21  2  0  0  0  0
 19 35  1  0  0  0  0
 20 22  1  0  0  0  0
 20 36  1  0  0  0  0
 21 37  1  0  0  0  0
 23 27  1  0  0  0  0
 23 39  1  0  0  0  0
 24 28  1  0  0  0  0
 24 40  1  0  0  0  0
 25 41  1  0  0  0  0
 25 42  1  0  0  0  0
 25 43  1  0  0  0  0
 26 29  2  0  0  0  0
 26 30  1  0  0  0  0
 27 28  2  0  0  0  0
 27 44  1  0  0  0  0
 28 45  1  0  0  0  0
 29 31  1  0  0  0  0
 29 46  1  0  0  0  0
 30 33  2  0  0  0  0
 30 47  1  0  0  0  0
 31 32  2  0  0  0  0
 32 33  1  0  0  0  0
 32 34  1  0  0  0  0
 33 48  1  0  0  0  0
 34 49  1  0  0  0  0
 34 50  1  0  0  0  0
 34 51  1  0  0  0  0
M  CHG  2   6  -1  10   1
M  END
> <PUBCHEM_COMPOUND_CID>
18559010

> <PUBCHEM_COMPOUND_CANONICALIZED>
1

> <PUBCHEM_CACTVS_COMPLEXITY>
1010

> <PUBCHEM_CACTVS_HBOND_ACCEPTOR>
7

> <PUBCHEM_CACTVS_HBOND_DONOR>
1

> <PUBCHEM_CACTVS_ROTATABLE_BOND>
3

> <PUBCHEM_CACTVS_SUBSKEYS>
AAADceB7OABAAAAAAAAAAAAAAAAAAAAAAAAwYMGCAAAAAADBUAAAHgQUQAAADAyB2AQywYNQQAKJAqVSU3DCABAlAgAoiBkIZMoIIDrAlZGEIYxglgDIyccciMCOkACAQCASAACgAQSAQCQAAAAAAAAAAA==

> <PUBCHEM_IUPAC_INCHI>
InChI=1S/C24H17N3O6S/c1-13-7-8-14(11-20(13)27(30)31)34(32,33)25-18-9-10-19-22-17(12-21(28)26(19)2)15-5-3-4-6-16(15)24(29)23(18)22/h3-12,25H,1-2H3

> <PUBCHEM_IUPAC_INCHIKEY>
OJWYCZPXQUGHDW-UHFFFAOYSA-N

> <PUBCHEM_XLOGP3_AA>
3.5

> <PUBCHEM_EXACT_MASS>
475.084

> <PUBCHEM_MOLECULAR_FORMULA>
C24H17N3O6S

> <PUBCHEM_MOLECULAR_WEIGHT>
475.475

> <PUBCHEM_OPENEYE_CAN_SMILES>
CC1=C(C=C(C=C1)S(=O)(=O)NC2=C3C4=C(C=C2)N(C(=O)C=C4C5=CC=CC=C5C3=O)C)[N+](=O)[O-]

> <PUBCHEM_OPENEYE_ISO_SMILES>
CC1=C(C=C(C=C1)S(=O)(=O)NC2=C3C4=C(C=C2)N(C(=O)C=C4C5=CC=CC=C5C3=O)C)[N+](=O)[O-]

> <PUBCHEM_CACTVS_TPSA>
138

> <PUBCHEM_MONOISOTOPIC_WEIGHT>
475.084

> <PUBCHEM_TOTAL_CHARGE>
0

> <PUBCHEM_HEAVY_ATOM_COUNT>
34

> <PUBCHEM_ATOM_DEF_STEREO_COUNT>
0

> <PUBCHEM_ATOM_UDEF_STEREO_COUNT>
0

> <PUBCHEM_BOND_DEF_STEREO_COUNT>
0

> <PUBCHEM_BOND_UDEF_STEREO_COUNT>
0

> <PUBCHEM_ISOTOPIC_ATOM_COUNT>
0

> <PUBCHEM_COMPONENT_COUNT>
1

> <PUBCHEM_CACTVS_TAUTO_COUNT>
4

> <PUBCHEM_COORDINATE_TYPE>
1
5
255

> <PUBCHEM_BONDANNOTATIONS>
11  12  8
11  13  8
11  14  8
12  16  8
13  20  8
14  19  8
15  17  8
15  23  8
16  21  8
17  24  8
19  21  8
20  22  8
23  27  8
24  28  8
26  29  8
26  30  8
27  28  8
29  31  8
30  33  8
31  32  8
32  33  8
8  14  8
8  22  8

$$$$
4089894
  -OEChem-11021605012D

 44 49  0     0  0  0  0  0  0999 V2000
    6.3829   -1.4884    0.0000 S   0  0  0  0  0  0  0  0  0  0  0  0
    7.3409   -2.9843    0.0000 S   0  0  0  0  0  0  0  0  0  0  0  0
    4.6660   -1.4915    0.0000 O   0  0  0  0  0  0  0  0  0  0  0  0
    5.5442    4.0778    0.0000 O   0  0  0  0  0  0  0  0  0  0  0  0
    6.4501    2.5569    0.0000 N   0  0  0  0  0  0  0  0  0  0  0  0
    8.1559   -1.5964    0.0000 N   0  0  0  0  0  0  0  0  0  0  0  0
    5.5321    1.0085    0.0000 C   0  0  0  0  0  0  0  0  0  0  0  0
    4.6660    1.5085    0.0000 C   0  0  0  0  0  0  0  0  0  0  0  0
    5.5321    0.0085    0.0000 C   0  0  0  0  0  0  0  0  0  0  0  0
    6.4421    1.5153    0.0000 C   0  0  0  0  0  0  0  0  0  0  0  0
    3.8000    1.0085    0.0000 C   0  0  0  0  0  0  0  0  0  0  0  0
    3.8000    0.0085    0.0000 C   0  0  0  0  0  0  0  0  0  0  0  0
    4.6660   -0.4915    0.0000 C   0  0  0  0  0  0  0  0  0  0  0  0
    6.3903   -0.4884    0.0000 C   0  0  0  0  0  0  0  0  0  0  0  0
    4.6500    2.5500    0.0000 C   0  0  0  0  0  0  0  0  0  0  0  0
    7.2814    0.9871    0.0000 C   0  0  0  0  0  0  0  0  0  0  0  0
    5.5480    3.0778    0.0000 C   0  0  0  0  0  0  0  0  0  0  0  0
    7.2558   -0.0043    0.0000 C   0  0  0  0  0  0  0  0  0  0  0  0
    2.9061    1.5432    0.0000 C   0  0  0  0  0  0  0  0  0  0  0  0
    2.9061   -0.5262    0.0000 C   0  0  0  0  0  0  0  0  0  0  0  0
    7.3180    3.0536    0.0000 C   0  0  0  0  0  0  0  0  0  0  0  0
    2.0000    1.0293    0.0000 C   0  0  0  0  0  0  0  0  0  0  0  0
    2.0000   -0.0123    0.0000 C   0  0  0  0  0  0  0  0  0  0  0  0
    7.2452   -1.9948    0.0000 C   0  0  0  0  0  0  0  0  0  0  0  0
    8.3112   -3.2006    0.0000 C   0  0  0  0  0  0  0  0  0  0  0  0
    8.8176   -2.3384    0.0000 C   0  0  0  0  0  0  0  0  0  0  0  0
    8.8047   -4.0704    0.0000 C   0  0  0  0  0  0  0  0  0  0  0  0
    9.8175   -2.3457    0.0000 C   0  0  0  0  0  0  0  0  0  0  0  0
    9.8047   -4.0778    0.0000 C   0  0  0  0  0  0  0  0  0  0  0  0
   10.3111   -3.2154    0.0000 C   0  0  0  0  0  0  0  0  0  0  0  0
    4.1095    2.8538    0.0000 H   0  0  0  0  0  0  0  0  0  0  0  0
    7.8280    1.2798    0.0000 H   0  0  0  0  0  0  0  0  0  0  0  0
    7.7865   -0.3248    0.0000 H   0  0  0  0  0  0  0  0  0  0  0  0
    2.9132    2.1631    0.0000 H   0  0  0  0  0  0  0  0  0  0  0  0
    2.9132   -1.1461    0.0000 H   0  0  0  0  0  0  0  0  0  0  0  0
    7.6260    2.5155    0.0000 H   0  0  0  0  0  0  0  0  0  0  0  0
    7.8562    3.3615    0.0000 H   0  0  0  0  0  0  0  0  0  0  0  0
    7.0101    3.5917    0.0000 H   0  0  0  0  0  0  0  0  0  0  0  0
    1.4643    1.3414    0.0000 H   0  0  0  0  0  0  0  0  0  0  0  0
    1.4643   -0.3244    0.0000 H   0  0  0  0  0  0  0  0  0  0  0  0
    8.4908   -4.6050    0.0000 H   0  0  0  0  0  0  0  0  0  0  0  0
   10.1315   -1.8111    0.0000 H   0  0  0  0  0  0  0  0  0  0  0  0
   10.1107   -4.6170    0.0000 H   0  0  0  0  0  0  0  0  0  0  0  0
   10.9311   -3.2200    0.0000 H   0  0  0  0  0  0  0  0  0  0  0  0
  1 14  1  0  0  0  0
  1 24  1  0  0  0  0
  2 24  1  0  0  0  0
  2 25  1  0  0  0  0
  3 13  2  0  0  0  0
  4 17  2  0  0  0  0
  5 10  1  0  0  0  0
  5 17  1  0  0  0  0
  5 21  1  0  0  0  0
  6 24  2  0  0  0  0
  6 26  1  0  0  0  0
  7  8  1  0  0  0  0
  7  9  1  0  0  0  0
  7 10  2  0  0  0  0
  8 11  1  0  0  0  0
  8 15  2  0  0  0  0
  9 13  1  0  0  0  0
  9 14  2  0  0  0  0
 10 16  1  0  0  0  0
 11 12  1  0  0  0  0
 11 19  2  0  0  0  0
 12 13  1  0  0  0  0
 12 20  2  0  0  0  0
 14 18  1  0  0  0  0
 15 17  1  0  0  0  0
 15 31  1  0  0  0  0
 16 18  2  0  0  0  0
 16 32  1  0  0  0  0
 18 33  1  0  0  0  0
 19 22  1  0  0  0  0
 19 34  1  0  0  0  0
 20 23  1  0  0  0  0
 20 35  1  0  0  0  0
 21 36  1  0  0  0  0
 21 37  1  0  0  0  0
 21 38  1  0  0  0  0
 22 23  2  0  0  0  0
 22 39  1  0  0  0  0
 23 40  1  0  0  0  0
 25 26  1  0  0  0  0
 25 27  2  0  0  0  0
 26 28  2  0  0  0  0
 27 29  1  0  0  0  0
 27 41  1  0  0  0  0
 28 30  1  0  0  0  0
 28 42  1  0  0  0  0
 29 30  2  0  0  0  0
 29 43  1  0  0  0  0
 30 44  1  0  0  0  0
M  END
> <PUBCHEM_COMPOUND_CID>
4089894

> <PUBCHEM_COMPOUND_CANONICALIZED>
1

> <PUBCHEM_CACTVS_COMPLEXITY>
770

> <PUBCHEM_CACTVS_HBOND_ACCEPTOR>
5

> <PUBCHEM_CACTVS_HBOND_DONOR>
0

> <PUBCHEM_CACTVS_ROTATABLE_BOND>
2

> <PUBCHEM_CACTVS_SUBSKEYS>
AAADccB7MABgAAAAAAAAAAAAAAAAAWAAAAAwYMGCAAAAAFjB9AAAHgQAAAAADAyB3gQywbMIEAisA6VyVACD8aBlCjhImD04ZNgIILLglZGEIQhghgDIyYcciMCOgAQAwAAWAQCACAWAACwCAAAAAAAAAA==

> <PUBCHEM_IUPAC_INCHI>
InChI=1S/C24H14N2O2S2/c1-26-17-10-11-19(30-24-25-16-8-4-5-9-18(16)29-24)22-21(17)15(12-20(26)27)13-6-2-3-7-14(13)23(22)28/h2-12H,1H3

> <PUBCHEM_IUPAC_INCHIKEY>
OHGNRDUBTJLJRF-UHFFFAOYSA-N

> <PUBCHEM_XLOGP3_AA>
5.1

> <PUBCHEM_EXACT_MASS>
426.05

> <PUBCHEM_MOLECULAR_FORMULA>
C24H14N2O2S2

> <PUBCHEM_MOLECULAR_WEIGHT>
426.508

> <PUBCHEM_OPENEYE_CAN_SMILES>
CN1C2=C3C(=CC1=O)C4=CC=CC=C4C(=O)C3=C(C=C2)SC5=NC6=CC=CC=C6S5

> <PUBCHEM_OPENEYE_ISO_SMILES>
CN1C2=C3C(=CC1=O)C4=CC=CC=C4C(=O)C3=C(C=C2)SC5=NC6=CC=CC=C6S5

> <PUBCHEM_CACTVS_TPSA>
104

> <PUBCHEM_MONOISOTOPIC_WEIGHT>
426.05

> <PUBCHEM_TOTAL_CHARGE>
0

> <PUBCHEM_HEAVY_ATOM_COUNT>
30

> <PUBCHEM_ATOM_DEF_STEREO_COUNT>
0

> <PUBCHEM_ATOM_UDEF_STEREO_COUNT>
0

> <PUBCHEM_BOND_DEF_STEREO_COUNT>
0

> <PUBCHEM_BOND_UDEF_STEREO_COUNT>
0

> <PUBCHEM_ISOTOPIC_ATOM_COUNT>
0

> <PUBCHEM_COMPONENT_COUNT>
1

> <PUBCHEM_CACTVS_TAUTO_COUNT>
1

> <PUBCHEM_COORDINATE_TYPE>
1
5
255

> <PUBCHEM_BONDANNOTATIONS>
10  16  8
11  12  8
11  19  8
12  20  8
14  18  8
15  17  8
16  18  8
19  22  8
2  24  8
2  25  8
20  23  8
22  23  8
25  26  8
25  27  8
26  28  8
27  29  8
28  30  8
29  30  8
5  10  8
5  17  8
6  24  8
6  26  8
7  10  8
7  8  8
7  9  8
8  15  8
9  14  8

$$$$
734936
  -OEChem-11021605012D

 38 40  0     0  0  0  0  0  0999 V2000
    6.3301   -0.4400    0.0000 O   0  0  0  0  0  0  0  0  0  0  0  0
    6.3301    2.5600    0.0000 O   0  0  0  0  0  0  0  0  0  0  0  0
    2.0000    0.0600    0.0000 O   0  0  0  0  0  0  0  0  0  0  0  0
    2.0000   -1.9400    0.0000 O   0  0  0  0  0  0  0  0  0  0  0  0
    7.1962    0.0600    0.0000 C   0  0  0  0  0  0  0  0  0  0  0  0
    7.1962    1.0600    0.0000 C   0  0  0  0  0  0  0  0  0  0  0  0
    8.0901   -0.4747    0.0000 C   0  0  0  0  0  0  0  0  0  0  0  0
    5.4641    0.0600    0.0000 C   0  0  0  0  0  0  0  0  0  0  0  0
    8.9962    1.0808    0.0000 C   0  0  0  0  0  0  0  0  0  0  0  0
    8.0901    1.5947    0.0000 C   0  0  0  0  0  0  0  0  0  0  0  0
    8.9962    0.0392    0.0000 C   0  0  0  0  0  0  0  0  0  0  0  0
    6.3301    1.5600    0.0000 C   0  0  0  0  0  0  0  0  0  0  0  0
    4.5981   -0.4400    0.0000 C   0  0  0  0  0  0  0  0  0  0  0  0
    5.4641    1.0600    0.0000 C   0  0  0  0  0  0  0  0  0  0  0  0
    8.0785   -1.4746    0.0000 C   0  0  0  0  0  0  0  0  0  0  0  0
    9.8602    1.5842    0.0000 C   0  0  0  0  0  0  0  0  0  0  0  0
    3.7320    0.0600    0.0000 C   0  0  0  0  0  0  0  0  0  0  0  0
    4.5981   -1.4400    0.0000 C   0  0  0  0  0  0  0  0  0  0  0  0
    2.8660   -0.4400    0.0000 C   0  0  0  0  0  0  0  0  0  0  0  0
    3.7320   -1.9400    0.0000 C   0  0  0  0  0  0  0  0  0  0  0  0
    2.8660   -1.4400    0.0000 C   0  0  0  0  0  0  0  0  0  0  0  0
    2.0000    1.0600    0.0000 C   0  0  0  0  0  0  0  0  0  0  0  0
    8.0829    2.2146    0.0000 H   0  0  0  0  0  0  0  0  0  0  0  0
    9.5319   -0.2729    0.0000 H   0  0  0  0  0  0  0  0  0  0  0  0
    4.9272    1.3700    0.0000 H   0  0  0  0  0  0  0  0  0  0  0  0
    7.4586   -1.4674    0.0000 H   0  0  0  0  0  0  0  0  0  0  0  0
    8.0714   -2.0946    0.0000 H   0  0  0  0  0  0  0  0  0  0  0  0
    8.6985   -1.4818    0.0000 H   0  0  0  0  0  0  0  0  0  0  0  0
   10.1723    1.0484    0.0000 H   0  0  0  0  0  0  0  0  0  0  0  0
   10.3960    1.8962    0.0000 H   0  0  0  0  0  0  0  0  0  0  0  0
    9.5482    2.1199    0.0000 H   0  0  0  0  0  0  0  0  0  0  0  0
    3.7320    0.6800    0.0000 H   0  0  0  0  0  0  0  0  0  0  0  0
    5.1350   -1.7500    0.0000 H   0  0  0  0  0  0  0  0  0  0  0  0
    3.7320   -2.5600    0.0000 H   0  0  0  0  0  0  0  0  0  0  0  0
    2.0000   -2.5600    0.0000 H   0  0  0  0  0  0  0  0  0  0  0  0
    2.6200    1.0600    0.0000 H   0  0  0  0  0  0  0  0  0  0  0  0
    2.0000    1.6800    0.0000 H   0  0  0  0  0  0  0  0  0  0  0  0
    1.3800    1.0600    0.0000 H   0  0  0  0  0  0  0  0  0  0  0  0
  1  5  1  0  0  0  0
  1  8  1  0  0  0  0
  2 12  2  0  0  0  0
  3 19  1  0  0  0  0
  3 22  1  0  0  0  0
  4 21  1  0  0  0  0
  4 35  1  0  0  0  0
  5  6  1  0  0  0  0
  5  7  2  0  0  0  0
  6 10  2  0  0  0  0
  6 12  1  0  0  0  0
  7 11  1  0  0  0  0
  7 15  1  0  0  0  0
  8 13  1  0  0  0  0
  8 14  2  0  0  0  0
  9 10  1  0  0  0  0
  9 11  2  0  0  0  0
  9 16  1  0  0  0  0
 10 23  1  0  0  0  0
 11 24  1  0  0  0  0
 12 14  1  0  0  0  0
 13 17  2  0  0  0  0
 13 18  1  0  0  0  0
 14 25  1  0  0  0  0
 15 26  1  0  0  0  0
 15 27  1  0  0  0  0
 15 28  1  0  0  0  0
 16 29  1  0  0  0  0
 16 30  1  0  0  0  0
 16 31  1  0  0  0  0
 17 19  1  0  0  0  0
 17 32  1  0  0  0  0
 18 20  2  0  0  0  0
 18 33  1  0  0  0  0
 19 21  2  0  0  0  0
 20 21  1  0  0  0  0
 20 34  1  0  0  0  0
 22 36  1  0  0  0  0
 22 37  1  0  0  0  0
 22 38  1  0  0  0  0
M  END
> <PUBCHEM_COMPOUND_CID>
734936

> <PUBCHEM_COMPOUND_CANONICALIZED>
1

> <PUBCHEM_CACTVS_COMPLEXITY>
458

> <PUBCHEM_CACTVS_HBOND_ACCEPTOR>
4

> <PUBCHEM_CACTVS_HBOND_DONOR>
1

> <PUBCHEM_CACTVS_ROTATABLE_BOND>
2

> <PUBCHEM_CACTVS_SUBSKEYS>
AAADceB4OAAAAAAAAAAAAAAAAAAAAAAAAAAwYIAAAAAAAACBQAAAGgAACAAADASAmAIyBoAABgCIAqBSAAACCAAkIAAIiAEGiMgNJjaGNRqCeWOk4BELuYfI6PyOIAADAAAIQABAAAYAABCAAAAAAAAAAA==

> <PUBCHEM_IUPAC_OPENEYE_NAME>
2-(4-hydroxy-3-methoxy-phenyl)-6,8-dimethyl-chromen-4-one

> <PUBCHEM_IUPAC_CAS_NAME>
2-(4-hydroxy-3-methoxyphenyl)-6,8-dimethyl-1-benzopyran-4-one

> <PUBCHEM_IUPAC_NAME>
2-(4-hydroxy-3-methoxyphenyl)-6,8-dimethylchromen-4-one

> <PUBCHEM_IUPAC_SYSTEMATIC_NAME>
2-(3-methoxy-4-oxidanyl-phenyl)-6,8-dimethyl-chromen-4-one

> <PUBCHEM_IUPAC_TRADITIONAL_NAME>
2-(4-hydroxy-3-methoxy-phenyl)-6,8-dimethyl-chromone

> <PUBCHEM_IUPAC_INCHI>
InChI=1S/C18H16O4/c1-10-6-11(2)18-13(7-10)15(20)9-16(22-18)12-4-5-14(19)17(8-12)21-3/h4-9,19H,1-3H3

> <PUBCHEM_IUPAC_INCHIKEY>
LWYJCVVIVLBLID-UHFFFAOYSA-N

> <PUBCHEM_XLOGP3_AA>
3.5

> <PUBCHEM_EXACT_MASS>
296.105

> <PUBCHEM_MOLECULAR_FORMULA>
C18H16O4

> <PUBCHEM_MOLECULAR_WEIGHT>
296.322

> <PUBCHEM_OPENEYE_CAN_SMILES>
CC1=CC(=C2C(=C1)C(=O)C=C(O2)C3=CC(=C(C=C3)O)OC)C

> <PUBCHEM_OPENEYE_ISO_SMILES>
CC1=CC(=C2C(=C1)C(=O)C=C(O2)C3=CC(=C(C=C3)O)OC)C

> <PUBCHEM_CACTVS_TPSA>
55.8

> <PUBCHEM_MONOISOTOPIC_WEIGHT>
296.105

> <PUBCHEM_TOTAL_CHARGE>
0

> <PUBCHEM_HEAVY_ATOM_COUNT>
22

> <PUBCHEM_ATOM_DEF_STEREO_COUNT>
0

> <PUBCHEM_ATOM_UDEF_STEREO_COUNT>
0

> <PUBCHEM_BOND_DEF_STEREO_COUNT>
0

> <PUBCHEM_BOND_UDEF_STEREO_COUNT>
0

> <PUBCHEM_ISOTOPIC_ATOM_COUNT>
0

> <PUBCHEM_COMPONENT_COUNT>
1

> <PUBCHEM_CACTVS_TAUTO_COUNT>
6

> <PUBCHEM_COORDINATE_TYPE>
1
5
255

> <PUBCHEM_BONDANNOTATIONS>
1  5  8
1  8  8
12  14  8
13  17  8
13  18  8
17  19  8
18  20  8
19  21  8
20  21  8
5  6  8
5  7  8
6  10  8
6  12  8
7  11  8
8  14  8
9  10  8
9  11  8

$$$$
11712649
  -OEChem-11021605012D

 49 53  0     0  0  0  0  0  0999 V2000
   13.0611   -2.5295    0.0000 Cl  0  0  0  0  0  0  0  0  0  0  0  0
   12.2450    2.5295    0.0000 F   0  0  0  0  0  0  0  0  0  0  0  0
   13.0159   -0.8478    0.0000 F   0  0  0  0  0  0  0  0  0  0  0  0
    2.5932   -0.9792    0.0000 O   0  0  0  0  0  0  0  0  0  0  0  0
    3.0973    0.6779    0.0000 O   0  0  0  0  0  0  0  0  0  0  0  0
   11.0320    1.4002    0.0000 N   0  0  0  0  0  0  0  0  0  0  0  0
    8.8785   -1.0768    0.0000 N   0  0  0  0  0  0  0  0  0  0  0  0
    7.6490    0.2381    0.0000 N   0  0  0  0  0  0  0  0  0  0  0  0
    7.1504   -1.4604    0.0000 N   0  0  0  0  0  0  0  0  0  0  0  0
   10.5320   -0.7905    0.0000 C   0  0  0  0  0  0  0  0  0  0  0  0
   11.4330   -0.3566    0.0000 C   0  0  0  0  0  0  0  0  0  0  0  0
    9.6311   -0.3566    0.0000 C   0  0  0  0  0  0  0  0  0  0  0  0
    9.4085    0.6183    0.0000 C   0  0  0  0  0  0  0  0  0  0  0  0
   11.6555    0.6183    0.0000 C   0  0  0  0  0  0  0  0  0  0  0  0
   10.0320    1.4002    0.0000 C   0  0  0  0  0  0  0  0  0  0  0  0
   12.6304    0.8408    0.0000 C   0  0  0  0  0  0  0  0  0  0  0  0
   10.4382   -1.8279    0.0000 C   0  0  0  0  0  0  0  0  0  0  0  0
   12.3026   -0.9300    0.0000 C   0  0  0  0  0  0  0  0  0  0  0  0
    8.4180    0.9407    0.0000 C   0  0  0  0  0  0  0  0  0  0  0  0
   11.2943   -2.4213    0.0000 C   0  0  0  0  0  0  0  0  0  0  0  0
   12.2327   -1.9693    0.0000 C   0  0  0  0  0  0  0  0  0  0  0  0
    7.8808   -0.7774    0.0000 C   0  0  0  0  0  0  0  0  0  0  0  0
   12.9252    1.7964    0.0000 C   0  0  0  0  0  0  0  0  0  0  0  0
   13.3106    0.1078    0.0000 C   0  0  0  0  0  0  0  0  0  0  0  0
    6.1937   -1.1694    0.0000 C   0  0  0  0  0  0  0  0  0  0  0  0
   13.9001    2.0189    0.0000 C   0  0  0  0  0  0  0  0  0  0  0  0
   14.2855    0.3303    0.0000 C   0  0  0  0  0  0  0  0  0  0  0  0
   14.5803    1.2859    0.0000 C   0  0  0  0  0  0  0  0  0  0  0  0
    5.4633   -1.8524    0.0000 C   0  0  0  0  0  0  0  0  0  0  0  0
    5.9674   -0.1953    0.0000 C   0  0  0  0  0  0  0  0  0  0  0  0
    4.2803   -0.5872    0.0000 C   0  0  0  0  0  0  0  0  0  0  0  0
    4.5066   -1.5613    0.0000 C   0  0  0  0  0  0  0  0  0  0  0  0
    5.0107    0.0958    0.0000 C   0  0  0  0  0  0  0  0  0  0  0  0
    3.3236   -0.2962    0.0000 C   0  0  0  0  0  0  0  0  0  0  0  0
   10.1700    2.0046    0.0000 H   0  0  0  0  0  0  0  0  0  0  0  0
    9.4734    1.6692    0.0000 H   0  0  0  0  0  0  0  0  0  0  0  0
    9.8765   -2.0904    0.0000 H   0  0  0  0  0  0  0  0  0  0  0  0
   12.8580   -0.6546    0.0000 H   0  0  0  0  0  0  0  0  0  0  0  0
    8.2871    1.5467    0.0000 H   0  0  0  0  0  0  0  0  0  0  0  0
   11.2456   -3.0394    0.0000 H   0  0  0  0  0  0  0  0  0  0  0  0
    7.2907   -2.0644    0.0000 H   0  0  0  0  0  0  0  0  0  0  0  0
   14.0829    2.6114    0.0000 H   0  0  0  0  0  0  0  0  0  0  0  0
   14.7073   -0.1242    0.0000 H   0  0  0  0  0  0  0  0  0  0  0  0
   15.1848    1.4238    0.0000 H   0  0  0  0  0  0  0  0  0  0  0  0
    5.6036   -2.4563    0.0000 H   0  0  0  0  0  0  0  0  0  0  0  0
    6.4203    0.2282    0.0000 H   0  0  0  0  0  0  0  0  0  0  0  0
    4.0537   -1.9848    0.0000 H   0  0  0  0  0  0  0  0  0  0  0  0
    4.8704    0.6997    0.0000 H   0  0  0  0  0  0  0  0  0  0  0  0
    2.0000   -0.7987    0.0000 H   0  0  0  0  0  0  0  0  0  0  0  0
  1 21  1  0  0  0  0
  2 23  1  0  0  0  0
  3 24  1  0  0  0  0
  4 34  1  0  0  0  0
  4 49  1  0  0  0  0
  5 34  2  0  0  0  0
  6 14  2  0  0  0  0
  6 15  1  0  0  0  0
  7 12  2  0  0  0  0
  7 22  1  0  0  0  0
  8 19  1  0  0  0  0
  8 22  2  0  0  0  0
  9 22  1  0  0  0  0
  9 25  1  0  0  0  0
  9 41  1  0  0  0  0
 10 11  2  0  0  0  0
 10 12  1  0  0  0  0
 10 17  1  0  0  0  0
 11 14  1  0  0  0  0
 11 18  1  0  0  0  0
 12 13  1  0  0  0  0
 13 15  1  0  0  0  0
 13 19  2  0  0  0  0
 14 16  1  0  0  0  0
 15 35  1  0  0  0  0
 15 36  1  0  0  0  0
 16 23  2  0  0  0  0
 16 24  1  0  0  0  0
 17 20  2  0  0  0  0
 17 37  1  0  0  0  0
 18 21  2  0  0  0  0
 18 38  1  0  0  0  0
 19 39  1  0  0  0  0
 20 21  1  0  0  0  0
 20 40  1  0  0  0  0
 23 26  1  0  0  0  0
 24 27  2  0  0  0  0
 25 29  2  0  0  0  0
 25 30  1  0  0  0  0
 26 28  2  0  0  0  0
 26 42  1  0  0  0  0
 27 28  1  0  0  0  0
 27 43  1  0  0  0  0
 28 44  1  0  0  0  0
 29 32  1  0  0  0  0
 29 45  1  0  0  0  0
 30 33  2  0  0  0  0
 30 46  1  0  0  0  0
 31 32  2  0  0  0  0
 31 33  1  0  0  0  0
 31 34  1  0  0  0  0
 32 47  1  0  0  0  0
 33 48  1  0  0  0  0
M  END
> <PUBCHEM_COMPOUND_CID>
11712649

> <PUBCHEM_COMPOUND_CANONICALIZED>
1

> <PUBCHEM_CACTVS_COMPLEXITY>
755

> <PUBCHEM_CACTVS_HBOND_ACCEPTOR>
8

> <PUBCHEM_CACTVS_HBOND_DONOR>
2

> <PUBCHEM_CACTVS_ROTATABLE_BOND>
4

> <PUBCHEM_CACTVS_SUBSKEYS>
AAADccB7sYAEAAAAAAAAAAAAAAAAAAAAAAA8YMEABAAAAAAB1AAAHwIQCAAADArBniw92JbIEgCoAzT3bACCgCk1B6AJ2CEobtiILrLB39GEdQhs0ANI2aeY2eOejAAAIAAQAAAYAABAACAAAAAAAAAAAA==

> <PUBCHEM_IUPAC_OPENEYE_NAME>
4-[[9-chloro-7-(2,6-difluorophenyl)-5H-pyrimido[5,4-d][2]benzazepin-2-yl]amino]benzoic acid

> <PUBCHEM_IUPAC_CAS_NAME>
4-[[9-chloro-7-(2,6-difluorophenyl)-5H-pyrimido[5,4-d][2]benzazepin-2-yl]amino]benzoic acid

> <PUBCHEM_IUPAC_NAME>
4-[[9-chloro-7-(2,6-difluorophenyl)-5H-pyrimido[5,4-d][2]benzazepin-2-yl]amino]benzoic acid

> <PUBCHEM_IUPAC_SYSTEMATIC_NAME>
4-[[7-[2,6-bis(fluoranyl)phenyl]-9-chloranyl-5H-pyrimido[5,4-d][2]benzazepin-2-yl]amino]benzoic acid

> <PUBCHEM_IUPAC_TRADITIONAL_NAME>
4-[[9-chloro-7-(2,6-difluorophenyl)-5H-pyrimido[5,4-d][2]benzazepin-2-yl]amino]benzoic acid

> <PUBCHEM_IUPAC_INCHI>
InChI=1S/C25H15ClF2N4O2/c26-15-6-9-17-18(10-15)23(21-19(27)2-1-3-20(21)28)29-11-14-12-30-25(32-22(14)17)31-16-7-4-13(5-8-16)24(33)34/h1-10,12H,11H2,(H,33,34)(H,30,31,32)

> <PUBCHEM_IUPAC_INCHIKEY>
HHFBDROWDBDFBR-UHFFFAOYSA-N

> <PUBCHEM_XLOGP3_AA>
5.2

> <PUBCHEM_EXACT_MASS>
476.085

> <PUBCHEM_MOLECULAR_FORMULA>
C25H15ClF2N4O2

> <PUBCHEM_MOLECULAR_WEIGHT>
476.868

> <PUBCHEM_OPENEYE_CAN_SMILES>
C1C2=CN=C(N=C2C3=C(C=C(C=C3)Cl)C(=N1)C4=C(C=CC=C4F)F)NC5=CC=C(C=C5)C(=O)O

> <PUBCHEM_OPENEYE_ISO_SMILES>
C1C2=CN=C(N=C2C3=C(C=C(C=C3)Cl)C(=N1)C4=C(C=CC=C4F)F)NC5=CC=C(C=C5)C(=O)O

> <PUBCHEM_CACTVS_TPSA>
87.5

> <PUBCHEM_MONOISOTOPIC_WEIGHT>
476.085

> <PUBCHEM_TOTAL_CHARGE>
0

> <PUBCHEM_HEAVY_ATOM_COUNT>
34

> <PUBCHEM_ATOM_DEF_STEREO_COUNT>
0

> <PUBCHEM_ATOM_UDEF_STEREO_COUNT>
0

> <PUBCHEM_BOND_DEF_STEREO_COUNT>
0

> <PUBCHEM_BOND_UDEF_STEREO_COUNT>
0

> <PUBCHEM_ISOTOPIC_ATOM_COUNT>
0

> <PUBCHEM_COMPONENT_COUNT>
1

> <PUBCHEM_CACTVS_TAUTO_COUNT>
7

> <PUBCHEM_COORDINATE_TYPE>
1
5
255

> <PUBCHEM_BONDANNOTATIONS>
10  11  8
10  17  8
11  18  8
12  13  8
13  19  8
16  23  8
16  24  8
17  20  8
18  21  8
20  21  8
23  26  8
24  27  8
25  29  8
25  30  8
26  28  8
27  28  8
29  32  8
30  33  8
31  32  8
31  33  8
7  12  8
7  22  8
8  19  8
8  22  8

$$$$
9903786
  -OEChem-11021605012D

 29 30  0     0  0  0  0  0  0999 V2000
    5.2558    0.7784    0.0000 S   0  0  0  0  0  0  0  0  0  0  0  0
    4.4467   -3.8094    0.0000 F   0  0  0  0  0  0  0  0  0  0  0  0
    3.7657    3.4520    0.0000 O   0  0  0  0  0  0  0  0  0  0  0  0
    6.9358    1.5204    0.0000 O   0  0  0  0  0  0  0  0  0  0  0  0
    5.5345    2.5385    0.0000 N   0  0  0  0  0  0  0  0  0  0  0  0
    2.3644    2.4340    0.0000 N   0  0  0  0  0  0  0  0  0  0  0  0
    7.1168    3.2430    0.0000 N   0  0  0  0  0  0  0  0  0  0  0  0
    4.4467    0.1906    0.0000 C   0  0  0  0  0  0  0  0  0  0  0  0
    3.9467    1.7295    0.0000 C   0  0  0  0  0  0  0  0  0  0  0  0
    4.4467   -0.8094    0.0000 C   0  0  0  0  0  0  0  0  0  0  0  0
    3.6377    0.7784    0.0000 C   0  0  0  0  0  0  0  0  0  0  0  0
    4.9467    1.7295    0.0000 C   0  0  0  0  0  0  0  0  0  0  0  0
    3.5807   -1.3094    0.0000 C   0  0  0  0  0  0  0  0  0  0  0  0
    5.3128   -1.3094    0.0000 C   0  0  0  0  0  0  0  0  0  0  0  0
    3.3590    2.5385    0.0000 C   0  0  0  0  0  0  0  0  0  0  0  0
    3.5807   -2.3094    0.0000 C   0  0  0  0  0  0  0  0  0  0  0  0
    5.3128   -2.3094    0.0000 C   0  0  0  0  0  0  0  0  0  0  0  0
    4.4467   -2.8094    0.0000 C   0  0  0  0  0  0  0  0  0  0  0  0
    6.5290    2.4340    0.0000 C   0  0  0  0  0  0  0  0  0  0  0  0
    3.0481    0.5868    0.0000 H   0  0  0  0  0  0  0  0  0  0  0  0
    3.0438   -0.9994    0.0000 H   0  0  0  0  0  0  0  0  0  0  0  0
    5.8497   -0.9994    0.0000 H   0  0  0  0  0  0  0  0  0  0  0  0
    5.2823    3.1049    0.0000 H   0  0  0  0  0  0  0  0  0  0  0  0
    3.0438   -2.6194    0.0000 H   0  0  0  0  0  0  0  0  0  0  0  0
    5.8497   -2.6194    0.0000 H   0  0  0  0  0  0  0  0  0  0  0  0
    2.0000    2.9356    0.0000 H   0  0  0  0  0  0  0  0  0  0  0  0
    2.1122    1.8676    0.0000 H   0  0  0  0  0  0  0  0  0  0  0  0
    7.7334    3.1782    0.0000 H   0  0  0  0  0  0  0  0  0  0  0  0
    6.8646    3.8094    0.0000 H   0  0  0  0  0  0  0  0  0  0  0  0
  1  8  1  0  0  0  0
  1 12  1  0  0  0  0
  2 18  1  0  0  0  0
  3 15  2  0  0  0  0
  4 19  2  0  0  0  0
  5 12  1  0  0  0  0
  5 19  1  0  0  0  0
  5 23  1  0  0  0  0
  6 15  1  0  0  0  0
  6 26  1  0  0  0  0
  6 27  1  0  0  0  0
  7 19  1  0  0  0  0
  7 28  1  0  0  0  0
  7 29  1  0  0  0  0
  8 10  1  0  0  0  0
  8 11  2  0  0  0  0
  9 11  1  0  0  0  0
  9 12  2  0  0  0  0
  9 15  1  0  0  0  0
 10 13  2  0  0  0  0
 10 14  1  0  0  0  0
 11 20  1  0  0  0  0
 13 16  1  0  0  0  0
 13 21  1  0  0  0  0
 14 17  2  0  0  0  0
 14 22  1  0  0  0  0
 16 18  2  0  0  0  0
 16 24  1  0  0  0  0
 17 18  1  0  0  0  0
 17 25  1  0  0  0  0
M  END
> <PUBCHEM_COMPOUND_CID>
9903786

> <PUBCHEM_COMPOUND_CANONICALIZED>
1

> <PUBCHEM_CACTVS_COMPLEXITY>
361

> <PUBCHEM_CACTVS_HBOND_ACCEPTOR>
4

> <PUBCHEM_CACTVS_HBOND_DONOR>
3

> <PUBCHEM_CACTVS_ROTATABLE_BOND>
3

> <PUBCHEM_CACTVS_SUBSKEYS>
AAADccBzMQBAAAAAAAAAAAAAAAAAASAAAAAwAAAAAAAAAAABwAAAHwQQAAAADACB2AgxgYLAAAiMAiFSUACDAIBlCBlIiBkARMiIIDrg1ZGEIYhghAJoyecYiMCOAAAAAAAAAAAAAAAAAAAAAAAAAAAAAA==

> <PUBCHEM_IUPAC_OPENEYE_NAME>
5-(4-fluorophenyl)-2-ureido-thiophene-3-carboxamide

> <PUBCHEM_IUPAC_CAS_NAME>
2-(carbamoylamino)-5-(4-fluorophenyl)-3-thiophenecarboxamide

> <PUBCHEM_IUPAC_NAME>
2-(carbamoylamino)-5-(4-fluorophenyl)thiophene-3-carboxamide

> <PUBCHEM_IUPAC_SYSTEMATIC_NAME>
2-(aminocarbonylamino)-5-(4-fluorophenyl)thiophene-3-carboxamide

> <PUBCHEM_IUPAC_TRADITIONAL_NAME>
5-(4-fluorophenyl)-2-ureido-thiophene-3-carboxamide

> <PUBCHEM_IUPAC_INCHI>
InChI=1S/C12H10FN3O2S/c13-7-3-1-6(2-4-7)9-5-8(10(14)17)11(19-9)16-12(15)18/h1-5H,(H2,14,17)(H3,15,16,18)

> <PUBCHEM_IUPAC_INCHIKEY>
SAYGKHKXGCPTLX-UHFFFAOYSA-N

> <PUBCHEM_XLOGP3_AA>
1.7

> <PUBCHEM_EXACT_MASS>
279.048

> <PUBCHEM_MOLECULAR_FORMULA>
C12H10FN3O2S

> <PUBCHEM_MOLECULAR_WEIGHT>
279.289

> <PUBCHEM_OPENEYE_CAN_SMILES>
C1=CC(=CC=C1C2=CC(=C(S2)NC(=O)N)C(=O)N)F

> <PUBCHEM_OPENEYE_ISO_SMILES>
C1=CC(=CC=C1C2=CC(=C(S2)NC(=O)N)C(=O)N)F

> <PUBCHEM_CACTVS_TPSA>
126

> <PUBCHEM_MONOISOTOPIC_WEIGHT>
279.048

> <PUBCHEM_TOTAL_CHARGE>
0

> <PUBCHEM_HEAVY_ATOM_COUNT>
19

> <PUBCHEM_ATOM_DEF_STEREO_COUNT>
0

> <PUBCHEM_ATOM_UDEF_STEREO_COUNT>
0

> <PUBCHEM_BOND_DEF_STEREO_COUNT>
0

> <PUBCHEM_BOND_UDEF_STEREO_COUNT>
0

> <PUBCHEM_ISOTOPIC_ATOM_COUNT>
0

> <PUBCHEM_COMPONENT_COUNT>
1

> <PUBCHEM_CACTVS_TAUTO_COUNT>
12

> <PUBCHEM_COORDINATE_TYPE>
1
5
255

> <PUBCHEM_BONDANNOTATIONS>
1  12  8
1  8  8
10  13  8
10  14  8
13  16  8
14  17  8
16  18  8
17  18  8
8  11  8
9  11  8
9  12  8

$$$$
44593646
  -OEChem-11021605012D

 65 68  0     0  0  0  0  0  0999 V2000
    5.5981    4.5670    0.0000 O   0  0  0  0  0  0  0  0  0  0  0  0
    3.8660   -1.4330    0.0000 O   0  0  0  0  0  0  0  0  0  0  0  0
    7.3301    4.5670    0.0000 N   0  0  0  0  0  0  0  0  0  0  0  0
    4.7320   -2.9330    0.0000 N   0  0  0  0  0  0  0  0  0  0  0  0
    8.1962    6.0670    0.0000 C   0  0  0  0  0  0  0  0  0  0  0  0
    9.1962    6.0670    0.0000 C   0  0  0  0  0  0  0  0  0  0  0  0
    8.6962    6.9330    0.0000 C   0  0  0  0  0  0  0  0  0  0  0  0
    7.3301    5.5670    0.0000 C   0  0  0  0  0  0  0  0  0  0  0  0
    6.4641    4.0670    0.0000 C   0  0  0  0  0  0  0  0  0  0  0  0
    6.4641    3.0670    0.0000 C   0  0  0  0  0  0  0  0  0  0  0  0
    3.0000   -5.9330    0.0000 C   0  0  0  0  0  0  0  0  0  0  0  0
    3.0000   -4.9330    0.0000 C   0  0  0  0  0  0  0  0  0  0  0  0
    5.5981    2.5670    0.0000 C   0  0  0  0  0  0  0  0  0  0  0  0
    7.3301    2.5670    0.0000 C   0  0  0  0  0  0  0  0  0  0  0  0
    3.0000   -6.9330    0.0000 C   0  0  0  0  0  0  0  0  0  0  0  0
    2.0000   -5.9330    0.0000 C   0  0  0  0  0  0  0  0  0  0  0  0
    4.0000   -5.9330    0.0000 C   0  0  0  0  0  0  0  0  0  0  0  0
    3.8660   -4.4330    0.0000 C   0  0  0  0  0  0  0  0  0  0  0  0
    6.4641    1.0670    0.0000 C   0  0  0  0  0  0  0  0  0  0  0  0
    2.1340   -4.4330    0.0000 C   0  0  0  0  0  0  0  0  0  0  0  0
    5.5981    1.5670    0.0000 C   0  0  0  0  0  0  0  0  0  0  0  0
    7.3301    1.5670    0.0000 C   0  0  0  0  0  0  0  0  0  0  0  0
    3.8660   -3.4330    0.0000 C   0  0  0  0  0  0  0  0  0  0  0  0
    6.4641    0.0670    0.0000 C   0  0  0  0  0  0  0  0  0  0  0  0
    2.1340   -3.4330    0.0000 C   0  0  0  0  0  0  0  0  0  0  0  0
    3.0000   -2.9330    0.0000 C   0  0  0  0  0  0  0  0  0  0  0  0
    7.3301   -0.4330    0.0000 C   0  0  0  0  0  0  0  0  0  0  0  0
    5.5981   -0.4330    0.0000 C   0  0  0  0  0  0  0  0  0  0  0  0
    5.5981   -1.4330    0.0000 C   0  0  0  0  0  0  0  0  0  0  0  0
    4.7320   -1.9330    0.0000 C   0  0  0  0  0  0  0  0  0  0  0  0
    7.3301   -1.4330    0.0000 C   0  0  0  0  0  0  0  0  0  0  0  0
    6.4641   -1.9330    0.0000 C   0  0  0  0  0  0  0  0  0  0  0  0
    8.1962    0.0670    0.0000 C   0  0  0  0  0  0  0  0  0  0  0  0
    7.7578    6.5054    0.0000 H   0  0  0  0  0  0  0  0  0  0  0  0
    9.1711    7.3315    0.0000 H   0  0  0  0  0  0  0  0  0  0  0  0
    8.2212    7.3315    0.0000 H   0  0  0  0  0  0  0  0  0  0  0  0
    9.3038    5.4564    0.0000 H   0  0  0  0  0  0  0  0  0  0  0  0
    9.7788    6.2790    0.0000 H   0  0  0  0  0  0  0  0  0  0  0  0
    7.1181    6.1496    0.0000 H   0  0  0  0  0  0  0  0  0  0  0  0
    6.7196    5.4593    0.0000 H   0  0  0  0  0  0  0  0  0  0  0  0
    7.8671    4.2570    0.0000 H   0  0  0  0  0  0  0  0  0  0  0  0
    2.3800   -6.9330    0.0000 H   0  0  0  0  0  0  0  0  0  0  0  0
    3.0000   -7.5530    0.0000 H   0  0  0  0  0  0  0  0  0  0  0  0
    3.6200   -6.9330    0.0000 H   0  0  0  0  0  0  0  0  0  0  0  0
    2.0000   -5.3130    0.0000 H   0  0  0  0  0  0  0  0  0  0  0  0
    1.3800   -5.9330    0.0000 H   0  0  0  0  0  0  0  0  0  0  0  0
    2.0000   -6.5530    0.0000 H   0  0  0  0  0  0  0  0  0  0  0  0
    4.0000   -6.5530    0.0000 H   0  0  0  0  0  0  0  0  0  0  0  0
    4.6200   -5.9330    0.0000 H   0  0  0  0  0  0  0  0  0  0  0  0
    4.0000   -5.3130    0.0000 H   0  0  0  0  0  0  0  0  0  0  0  0
    5.0611    2.8770    0.0000 H   0  0  0  0  0  0  0  0  0  0  0  0
    7.8671    2.8770    0.0000 H   0  0  0  0  0  0  0  0  0  0  0  0
    4.4030   -4.7430    0.0000 H   0  0  0  0  0  0  0  0  0  0  0  0
    1.5970   -4.7430    0.0000 H   0  0  0  0  0  0  0  0  0  0  0  0
    5.0611    1.2570    0.0000 H   0  0  0  0  0  0  0  0  0  0  0  0
    7.8671    1.2570    0.0000 H   0  0  0  0  0  0  0  0  0  0  0  0
    1.5970   -3.1230    0.0000 H   0  0  0  0  0  0  0  0  0  0  0  0
    3.0000   -2.3130    0.0000 H   0  0  0  0  0  0  0  0  0  0  0  0
    5.0611   -0.1230    0.0000 H   0  0  0  0  0  0  0  0  0  0  0  0
    5.2690   -3.2430    0.0000 H   0  0  0  0  0  0  0  0  0  0  0  0
    7.8671   -1.7430    0.0000 H   0  0  0  0  0  0  0  0  0  0  0  0
    6.4641   -2.5530    0.0000 H   0  0  0  0  0  0  0  0  0  0  0  0
    8.5062   -0.4699    0.0000 H   0  0  0  0  0  0  0  0  0  0  0  0
    8.7331    0.3770    0.0000 H   0  0  0  0  0  0  0  0  0  0  0  0
    7.8862    0.6039    0.0000 H   0  0  0  0  0  0  0  0  0  0  0  0
  1  9  2  0  0  0  0
  2 30  2  0  0  0  0
  3  8  1  0  0  0  0
  3  9  1  0  0  0  0
  3 41  1  0  0  0  0
  4 23  1  0  0  0  0
  4 30  1  0  0  0  0
  4 60  1  0  0  0  0
  5  6  1  0  0  0  0
  5  7  1  0  0  0  0
  5  8  1  0  0  0  0
  5 34  1  0  0  0  0
  6  7  1  0  0  0  0
  6 37  1  0  0  0  0
  6 38  1  0  0  0  0
  7 35  1  0  0  0  0
  7 36  1  0  0  0  0
  8 39  1  0  0  0  0
  8 40  1  0  0  0  0
  9 10  1  0  0  0  0
 10 13  2  0  0  0  0
 10 14  1  0  0  0  0
 11 12  1  0  0  0  0
 11 15  1  0  0  0  0
 11 16  1  0  0  0  0
 11 17  1  0  0  0  0
 12 18  2  0  0  0  0
 12 20  1  0  0  0  0
 13 21  1  0  0  0  0
 13 51  1  0  0  0  0
 14 22  2  0  0  0  0
 14 52  1  0  0  0  0
 15 42  1  0  0  0  0
 15 43  1  0  0  0  0
 15 44  1  0  0  0  0
 16 45  1  0  0  0  0
 16 46  1  0  0  0  0
 16 47  1  0  0  0  0
 17 48  1  0  0  0  0
 17 49  1  0  0  0  0
 17 50  1  0  0  0  0
 18 23  1  0  0  0  0
 18 53  1  0  0  0  0
 19 21  2  0  0  0  0
 19 22  1  0  0  0  0
 19 24  1  0  0  0  0
 20 25  2  0  0  0  0
 20 54  1  0  0  0  0
 21 55  1  0  0  0  0
 22 56  1  0  0  0  0
 23 26  2  0  0  0  0
 24 27  2  0  0  0  0
 24 28  1  0  0  0  0
 25 26  1  0  0  0  0
 25 57  1  0  0  0  0
 26 58  1  0  0  0  0
 27 31  1  0  0  0  0
 27 33  1  0  0  0  0
 28 29  2  0  0  0  0
 28 59  1  0  0  0  0
 29 30  1  0  0  0  0
 29 32  1  0  0  0  0
 31 32  2  0  0  0  0
 31 61  1  0  0  0  0
 32 62  1  0  0  0  0
 33 63  1  0  0  0  0
 33 64  1  0  0  0  0
 33 65  1  0  0  0  0
M  END
> <PUBCHEM_COMPOUND_CID>
44593646

> <PUBCHEM_COMPOUND_CANONICALIZED>
1

> <PUBCHEM_CACTVS_COMPLEXITY>
672

> <PUBCHEM_CACTVS_HBOND_ACCEPTOR>
2

> <PUBCHEM_CACTVS_HBOND_DONOR>
2

> <PUBCHEM_CACTVS_ROTATABLE_BOND>
7

> <PUBCHEM_CACTVS_SUBSKEYS>
AAADcfB7MAAAAAAAAAAAAAAAGAAAAAAAAAAwYMAAAAAAAAABUAAAHgAQAAAADwjBmAQywILAAACIAiVSUACCAAAlAgAIiIEIZMgIIDLAlZGEIQhglgDIyYcYiMCPwAACQAAQAACAAASAACAAAAAAAAAAAA==

> <PUBCHEM_IUPAC_OPENEYE_NAME>
N-(3-tert-butylphenyl)-3-[4-(cyclopropylmethylcarbamoyl)phenyl]-4-methyl-benzamide

> <PUBCHEM_IUPAC_CAS_NAME>
N-(3-tert-butylphenyl)-3-[4-[(cyclopropylmethylamino)-oxomethyl]phenyl]-4-methylbenzamide

> <PUBCHEM_IUPAC_NAME>
N-(3-tert-butylphenyl)-3-[4-(cyclopropylmethylcarbamoyl)phenyl]-4-methylbenzamide

> <PUBCHEM_IUPAC_SYSTEMATIC_NAME>
N-(3-tert-butylphenyl)-3-[4-(cyclopropylmethylcarbamoyl)phenyl]-4-methyl-benzamide

> <PUBCHEM_IUPAC_TRADITIONAL_NAME>
N-(3-tert-butylphenyl)-3-[4-(cyclopropylmethylcarbamoyl)phenyl]-4-methyl-benzamide

> <PUBCHEM_IUPAC_INCHI>
InChI=1S/C29H32N2O2/c1-19-8-11-23(28(33)31-25-7-5-6-24(17-25)29(2,3)4)16-26(19)21-12-14-22(15-13-21)27(32)30-18-20-9-10-20/h5-8,11-17,20H,9-10,18H2,1-4H3,(H,30,32)(H,31,33)

> <PUBCHEM_IUPAC_INCHIKEY>
GZGRGXPFYDFNHF-UHFFFAOYSA-N

> <PUBCHEM_XLOGP3_AA>
6.4

> <PUBCHEM_EXACT_MASS>
440.246

> <PUBCHEM_MOLECULAR_FORMULA>
C29H32N2O2

> <PUBCHEM_MOLECULAR_WEIGHT>
440.587

> <PUBCHEM_OPENEYE_CAN_SMILES>
CC1=C(C=C(C=C1)C(=O)NC2=CC=CC(=C2)C(C)(C)C)C3=CC=C(C=C3)C(=O)NCC4CC4

> <PUBCHEM_OPENEYE_ISO_SMILES>
CC1=C(C=C(C=C1)C(=O)NC2=CC=CC(=C2)C(C)(C)C)C3=CC=C(C=C3)C(=O)NCC4CC4

> <PUBCHEM_CACTVS_TPSA>
58.2

> <PUBCHEM_MONOISOTOPIC_WEIGHT>
440.246

> <PUBCHEM_TOTAL_CHARGE>
0

> <PUBCHEM_HEAVY_ATOM_COUNT>
33

> <PUBCHEM_ATOM_DEF_STEREO_COUNT>
0

> <PUBCHEM_ATOM_UDEF_STEREO_COUNT>
0

> <PUBCHEM_BOND_DEF_STEREO_COUNT>
0

> <PUBCHEM_BOND_UDEF_STEREO_COUNT>
0

> <PUBCHEM_ISOTOPIC_ATOM_COUNT>
0

> <PUBCHEM_COMPONENT_COUNT>
1

> <PUBCHEM_CACTVS_TAUTO_COUNT>
20

> <PUBCHEM_COORDINATE_TYPE>
1
5
255

> <PUBCHEM_BONDANNOTATIONS>
10  13  8
10  14  8
12  18  8
12  20  8
13  21  8
14  22  8
18  23  8
19  21  8
19  22  8
20  25  8
23  26  8
24  27  8
24  28  8
25  26  8
27  31  8
28  29  8
29  32  8
31  32  8

$$$$
25138012
  -OEChem-11021605012D

 42 44  0     0  0  0  0  0  0999 V2000
    5.4641   -3.6900    0.0000 O   0  0  0  0  0  0  0  0  0  0  0  0
    8.9282    1.3100    0.0000 O   0  0  0  0  0  0  0  0  0  0  0  0
    3.7320   -0.6900    0.0000 N   0  0  0  0  0  0  0  0  0  0  0  0
    5.4641    2.3100    0.0000 N   0  0  0  0  0  0  0  0  0  0  0  0
    4.5981    0.8100    0.0000 N   0  0  0  0  0  0  0  0  0  0  0  0
    6.3301    0.8100    0.0000 N   0  0  0  0  0  0  0  0  0  0  0  0
    9.7942    2.8100    0.0000 N   0  0  0  0  0  0  0  0  0  0  0  0
    3.7320   -1.6900    0.0000 C   0  0  0  0  0  0  0  0  0  0  0  0
    2.8660   -2.1900    0.0000 C   0  0  0  0  0  0  0  0  0  0  0  0
    4.5981   -2.1900    0.0000 C   0  0  0  0  0  0  0  0  0  0  0  0
    4.5981   -0.1900    0.0000 C   0  0  0  0  0  0  0  0  0  0  0  0
    2.8660   -3.1900    0.0000 C   0  0  0  0  0  0  0  0  0  0  0  0
    6.3301    2.8100    0.0000 C   0  0  0  0  0  0  0  0  0  0  0  0
    4.5981   -3.1900    0.0000 C   0  0  0  0  0  0  0  0  0  0  0  0
    2.0000   -1.6900    0.0000 C   0  0  0  0  0  0  0  0  0  0  0  0
    3.7320   -3.6900    0.0000 C   0  0  0  0  0  0  0  0  0  0  0  0
    5.4641    1.3100    0.0000 C   0  0  0  0  0  0  0  0  0  0  0  0
    7.1962    2.3100    0.0000 C   0  0  0  0  0  0  0  0  0  0  0  0
    8.0622    2.8100    0.0000 C   0  0  0  0  0  0  0  0  0  0  0  0
    6.3301    3.8100    0.0000 C   0  0  0  0  0  0  0  0  0  0  0  0
    5.4641   -0.6900    0.0000 C   0  0  0  0  0  0  0  0  0  0  0  0
    8.0622    3.8100    0.0000 C   0  0  0  0  0  0  0  0  0  0  0  0
    7.1962    4.3100    0.0000 C   0  0  0  0  0  0  0  0  0  0  0  0
    6.3301   -0.1900    0.0000 C   0  0  0  0  0  0  0  0  0  0  0  0
    8.9282    2.3100    0.0000 C   0  0  0  0  0  0  0  0  0  0  0  0
    3.1951   -0.3800    0.0000 H   0  0  0  0  0  0  0  0  0  0  0  0
    5.1350   -1.8800    0.0000 H   0  0  0  0  0  0  0  0  0  0  0  0
    2.3291   -3.5000    0.0000 H   0  0  0  0  0  0  0  0  0  0  0  0
    2.3100   -1.1531    0.0000 H   0  0  0  0  0  0  0  0  0  0  0  0
    1.4631   -1.3800    0.0000 H   0  0  0  0  0  0  0  0  0  0  0  0
    1.6900   -2.2269    0.0000 H   0  0  0  0  0  0  0  0  0  0  0  0
    3.7320   -4.3100    0.0000 H   0  0  0  0  0  0  0  0  0  0  0  0
    4.9272    2.6200    0.0000 H   0  0  0  0  0  0  0  0  0  0  0  0
    7.1962    1.6900    0.0000 H   0  0  0  0  0  0  0  0  0  0  0  0
    5.7932    4.1200    0.0000 H   0  0  0  0  0  0  0  0  0  0  0  0
    5.4641   -1.3100    0.0000 H   0  0  0  0  0  0  0  0  0  0  0  0
    8.5991    4.1200    0.0000 H   0  0  0  0  0  0  0  0  0  0  0  0
    7.1962    4.9300    0.0000 H   0  0  0  0  0  0  0  0  0  0  0  0
    6.8671   -0.5000    0.0000 H   0  0  0  0  0  0  0  0  0  0  0  0
    5.4641   -4.3100    0.0000 H   0  0  0  0  0  0  0  0  0  0  0  0
   10.3312    2.5000    0.0000 H   0  0  0  0  0  0  0  0  0  0  0  0
    9.7942    3.4300    0.0000 H   0  0  0  0  0  0  0  0  0  0  0  0
  1 14  1  0  0  0  0
  1 40  1  0  0  0  0
  2 25  2  0  0  0  0
  3  8  1  0  0  0  0
  3 11  1  0  0  0  0
  3 26  1  0  0  0  0
  4 13  1  0  0  0  0
  4 17  1  0  0  0  0
  4 33  1  0  0  0  0
  5 11  2  0  0  0  0
  5 17  1  0  0  0  0
  6 17  2  0  0  0  0
  6 24  1  0  0  0  0
  7 25  1  0  0  0  0
  7 41  1  0  0  0  0
  7 42  1  0  0  0  0
  8  9  2  0  0  0  0
  8 10  1  0  0  0  0
  9 12  1  0  0  0  0
  9 15  1  0  0  0  0
 10 14  2  0  0  0  0
 10 27  1  0  0  0  0
 11 21  1  0  0  0  0
 12 16  2  0  0  0  0
 12 28  1  0  0  0  0
 13 18  1  0  0  0  0
 13 20  2  0  0  0  0
 14 16  1  0  0  0  0
 15 29  1  0  0  0  0
 15 30  1  0  0  0  0
 15 31  1  0  0  0  0
 16 32  1  0  0  0  0
 18 19  2  0  0  0  0
 18 34  1  0  0  0  0
 19 22  1  0  0  0  0
 19 25  1  0  0  0  0
 20 23  1  0  0  0  0
 20 35  1  0  0  0  0
 21 24  2  0  0  0  0
 21 36  1  0  0  0  0
 22 23  2  0  0  0  0
 22 37  1  0  0  0  0
 23 38  1  0  0  0  0
 24 39  1  0  0  0  0
M  END
> <PUBCHEM_COMPOUND_CID>
25138012

> <PUBCHEM_COMPOUND_CANONICALIZED>
1

> <PUBCHEM_CACTVS_COMPLEXITY>
449

> <PUBCHEM_CACTVS_HBOND_ACCEPTOR>
6

> <PUBCHEM_CACTVS_HBOND_DONOR>
4

> <PUBCHEM_CACTVS_ROTATABLE_BOND>
5

> <PUBCHEM_CACTVS_SUBSKEYS>
AAADceB7sAAAAAAAAAAAAAAAAAAAAAAAAAA8YIAAAAAAAAAB0AAAHgAQCAAADAzBmgQ/9pbIEgCoAjd3dACCgCk1IqAJ2CE+bNiILvLC3dOEdQhu0BvI2aec2AOOIAAAQgACAABAAACEAAQAAAAAAAAAAA==

> <PUBCHEM_IUPAC_OPENEYE_NAME>
3-[[4-(5-hydroxy-2-methyl-anilino)pyrimidin-2-yl]amino]benzamide

> <PUBCHEM_IUPAC_CAS_NAME>
3-[[4-(5-hydroxy-2-methylanilino)-2-pyrimidinyl]amino]benzamide

> <PUBCHEM_IUPAC_NAME>
3-[[4-(5-hydroxy-2-methylanilino)pyrimidin-2-yl]amino]benzamide

> <PUBCHEM_IUPAC_SYSTEMATIC_NAME>
3-[[4-[(2-methyl-5-oxidanyl-phenyl)amino]pyrimidin-2-yl]amino]benzamide

> <PUBCHEM_IUPAC_TRADITIONAL_NAME>
3-[[4-(5-hydroxy-2-methyl-anilino)pyrimidin-2-yl]amino]benzamide

> <PUBCHEM_IUPAC_INCHI>
InChI=1S/C18H17N5O2/c1-11-5-6-14(24)10-15(11)22-16-7-8-20-18(23-16)21-13-4-2-3-12(9-13)17(19)25/h2-10,24H,1H3,(H2,19,25)(H2,20,21,22,23)

> <PUBCHEM_IUPAC_INCHIKEY>
SFCBIFOAGRZJNX-UHFFFAOYSA-N

> <PUBCHEM_XLOGP3_AA>
2.8

> <PUBCHEM_EXACT_MASS>
335.138

> <PUBCHEM_MOLECULAR_FORMULA>
C18H17N5O2

> <PUBCHEM_MOLECULAR_WEIGHT>
335.367

> <PUBCHEM_OPENEYE_CAN_SMILES>
CC1=C(C=C(C=C1)O)NC2=NC(=NC=C2)NC3=CC=CC(=C3)C(=O)N

> <PUBCHEM_OPENEYE_ISO_SMILES>
CC1=C(C=C(C=C1)O)NC2=NC(=NC=C2)NC3=CC=CC(=C3)C(=O)N

> <PUBCHEM_CACTVS_TPSA>
113

> <PUBCHEM_MONOISOTOPIC_WEIGHT>
335.138

> <PUBCHEM_TOTAL_CHARGE>
0

> <PUBCHEM_HEAVY_ATOM_COUNT>
25

> <PUBCHEM_ATOM_DEF_STEREO_COUNT>
0

> <PUBCHEM_ATOM_UDEF_STEREO_COUNT>
0

> <PUBCHEM_BOND_DEF_STEREO_COUNT>
0

> <PUBCHEM_BOND_UDEF_STEREO_COUNT>
0

> <PUBCHEM_ISOTOPIC_ATOM_COUNT>
0

> <PUBCHEM_COMPONENT_COUNT>
1

> <PUBCHEM_CACTVS_TAUTO_COUNT>
112

> <PUBCHEM_COORDINATE_TYPE>
1
5
255

> <PUBCHEM_BONDANNOTATIONS>
10  14  8
11  21  8
12  16  8
13  18  8
13  20  8
14  16  8
18  19  8
19  22  8
20  23  8
21  24  8
22  23  8
5  11  8
5  17  8
6  17  8
6  24  8
8  10  8
8  9  8
9  12  8

$$$$
24856363
  -OEChem-11021605012D

 50 53  0     0  0  0  0  0  0999 V2000
    3.0000   -2.7500    0.0000 O   0  0  0  0  0  0  0  0  0  0  0  0
    4.7320    3.2500    0.0000 O   0  0  0  0  0  0  0  0  0  0  0  0
    3.8660   -4.2500    0.0000 N   0  0  0  0  0  0  0  0  0  0  0  0
    6.4641    3.2500    0.0000 N   0  0  0  0  0  0  0  0  0  0  0  0
    7.3301    4.7500    0.0000 C   0  0  0  0  0  0  0  0  0  0  0  0
    8.3301    4.7500    0.0000 C   0  0  0  0  0  0  0  0  0  0  0  0
    7.8301    5.6160    0.0000 C   0  0  0  0  0  0  0  0  0  0  0  0
    3.0000   -4.7500    0.0000 C   0  0  0  0  0  0  0  0  0  0  0  0
    2.0000   -4.7500    0.0000 C   0  0  0  0  0  0  0  0  0  0  0  0
    2.5000   -5.6160    0.0000 C   0  0  0  0  0  0  0  0  0  0  0  0
    6.4641    4.2500    0.0000 C   0  0  0  0  0  0  0  0  0  0  0  0
    3.8660   -3.2500    0.0000 C   0  0  0  0  0  0  0  0  0  0  0  0
    5.5981    2.7500    0.0000 C   0  0  0  0  0  0  0  0  0  0  0  0
    4.7320   -2.7500    0.0000 C   0  0  0  0  0  0  0  0  0  0  0  0
    5.5981    1.7500    0.0000 C   0  0  0  0  0  0  0  0  0  0  0  0
    4.7320   -1.7500    0.0000 C   0  0  0  0  0  0  0  0  0  0  0  0
    5.5981   -1.2500    0.0000 C   0  0  0  0  0  0  0  0  0  0  0  0
    5.5981   -3.2500    0.0000 C   0  0  0  0  0  0  0  0  0  0  0  0
    5.5981   -0.2500    0.0000 C   0  0  0  0  0  0  0  0  0  0  0  0
    6.4641   -1.7500    0.0000 C   0  0  0  0  0  0  0  0  0  0  0  0
    4.7320    1.2500    0.0000 C   0  0  0  0  0  0  0  0  0  0  0  0
    6.4641    1.2500    0.0000 C   0  0  0  0  0  0  0  0  0  0  0  0
    6.4641   -2.7500    0.0000 C   0  0  0  0  0  0  0  0  0  0  0  0
    4.7320    0.2500    0.0000 C   0  0  0  0  0  0  0  0  0  0  0  0
    6.4641    0.2500    0.0000 C   0  0  0  0  0  0  0  0  0  0  0  0
    7.3301   -1.2500    0.0000 C   0  0  0  0  0  0  0  0  0  0  0  0
    7.4906    4.1511    0.0000 H   0  0  0  0  0  0  0  0  0  0  0  0
    8.3051    6.0146    0.0000 H   0  0  0  0  0  0  0  0  0  0  0  0
    7.3552    6.0146    0.0000 H   0  0  0  0  0  0  0  0  0  0  0  0
    8.4378    4.1394    0.0000 H   0  0  0  0  0  0  0  0  0  0  0  0
    8.9127    4.9620    0.0000 H   0  0  0  0  0  0  0  0  0  0  0  0
    2.8395   -4.1511    0.0000 H   0  0  0  0  0  0  0  0  0  0  0  0
    2.0250   -6.0146    0.0000 H   0  0  0  0  0  0  0  0  0  0  0  0
    2.9750   -6.0146    0.0000 H   0  0  0  0  0  0  0  0  0  0  0  0
    1.8923   -4.1394    0.0000 H   0  0  0  0  0  0  0  0  0  0  0  0
    1.4174   -4.9620    0.0000 H   0  0  0  0  0  0  0  0  0  0  0  0
    6.2520    4.8326    0.0000 H   0  0  0  0  0  0  0  0  0  0  0  0
    5.8535    4.1423    0.0000 H   0  0  0  0  0  0  0  0  0  0  0  0
    4.4030   -4.5600    0.0000 H   0  0  0  0  0  0  0  0  0  0  0  0
    7.0010    2.9400    0.0000 H   0  0  0  0  0  0  0  0  0  0  0  0
    4.1951   -1.4400    0.0000 H   0  0  0  0  0  0  0  0  0  0  0  0
    5.5981   -3.8700    0.0000 H   0  0  0  0  0  0  0  0  0  0  0  0
    4.1951    1.5600    0.0000 H   0  0  0  0  0  0  0  0  0  0  0  0
    7.0010    1.5600    0.0000 H   0  0  0  0  0  0  0  0  0  0  0  0
    7.0010   -3.0600    0.0000 H   0  0  0  0  0  0  0  0  0  0  0  0
    4.1951   -0.0600    0.0000 H   0  0  0  0  0  0  0  0  0  0  0  0
    7.0010   -0.0600    0.0000 H   0  0  0  0  0  0  0  0  0  0  0  0
    7.6401   -1.7869    0.0000 H   0  0  0  0  0  0  0  0  0  0  0  0
    7.8671   -0.9400    0.0000 H   0  0  0  0  0  0  0  0  0  0  0  0
    7.0201   -0.7131    0.0000 H   0  0  0  0  0  0  0  0  0  0  0  0
  1 12  2  0  0  0  0
  2 13  2  0  0  0  0
  3  8  1  0  0  0  0
  3 12  1  0  0  0  0
  3 39  1  0  0  0  0
  4 11  1  0  0  0  0
  4 13  1  0  0  0  0
  4 40  1  0  0  0  0
  5  6  1  0  0  0  0
  5  7  1  0  0  0  0
  5 11  1  0  0  0  0
  5 27  1  0  0  0  0
  6  7  1  0  0  0  0
  6 30  1  0  0  0  0
  6 31  1  0  0  0  0
  7 28  1  0  0  0  0
  7 29  1  0  0  0  0
  8  9  1  0  0  0  0
  8 10  1  0  0  0  0
  8 32  1  0  0  0  0
  9 10  1  0  0  0  0
  9 35  1  0  0  0  0
  9 36  1  0  0  0  0
 10 33  1  0  0  0  0
 10 34  1  0  0  0  0
 11 37  1  0  0  0  0
 11 38  1  0  0  0  0
 12 14  1  0  0  0  0
 13 15  1  0  0  0  0
 14 16  2  0  0  0  0
 14 18  1  0  0  0  0
 15 21  2  0  0  0  0
 15 22  1  0  0  0  0
 16 17  1  0  0  0  0
 16 41  1  0  0  0  0
 17 19  1  0  0  0  0
 17 20  2  0  0  0  0
 18 23  2  0  0  0  0
 18 42  1  0  0  0  0
 19 24  2  0  0  0  0
 19 25  1  0  0  0  0
 20 23  1  0  0  0  0
 20 26  1  0  0  0  0
 21 24  1  0  0  0  0
 21 43  1  0  0  0  0
 22 25  2  0  0  0  0
 22 44  1  0  0  0  0
 23 45  1  0  0  0  0
 24 46  1  0  0  0  0
 25 47  1  0  0  0  0
 26 48  1  0  0  0  0
 26 49  1  0  0  0  0
 26 50  1  0  0  0  0
M  END
> <PUBCHEM_COMPOUND_CID>
24856363

> <PUBCHEM_COMPOUND_CANONICALIZED>
1

> <PUBCHEM_CACTVS_COMPLEXITY>
518

> <PUBCHEM_CACTVS_HBOND_ACCEPTOR>
2

> <PUBCHEM_CACTVS_HBOND_DONOR>
2

> <PUBCHEM_CACTVS_ROTATABLE_BOND>
6

> <PUBCHEM_CACTVS_SUBSKEYS>
AAADceB7MAAAAAAAAAAAAAAAGDAAAAAAAAAwYAAAAAAAAAABQAAAHgAQAAAADSjBmAQyAILAAACIAiFSEACCAAAkAAAIiIEIBMgIIDKAlRGEIQhglgCIiYcYiMCOwAACAAAQAACAAAQAACAAAAAAAAAAAA==

> <PUBCHEM_IUPAC_OPENEYE_NAME>
N-cyclopropyl-3-[4-(cyclopropylmethylcarbamoyl)phenyl]-4-methyl-benzamide

> <PUBCHEM_IUPAC_CAS_NAME>
N-cyclopropyl-3-[4-[(cyclopropylmethylamino)-oxomethyl]phenyl]-4-methylbenzamide

> <PUBCHEM_IUPAC_NAME>
N-cyclopropyl-3-[4-(cyclopropylmethylcarbamoyl)phenyl]-4-methylbenzamide

> <PUBCHEM_IUPAC_SYSTEMATIC_NAME>
N-cyclopropyl-3-[4-(cyclopropylmethylcarbamoyl)phenyl]-4-methyl-benzamide

> <PUBCHEM_IUPAC_TRADITIONAL_NAME>
N-cyclopropyl-3-[4-(cyclopropylmethylcarbamoyl)phenyl]-4-methyl-benzamide

> <PUBCHEM_IUPAC_INCHI>
InChI=1S/C22H24N2O2/c1-14-2-5-18(22(26)24-19-10-11-19)12-20(14)16-6-8-17(9-7-16)21(25)23-13-15-3-4-15/h2,5-9,12,15,19H,3-4,10-11,13H2,1H3,(H,23,25)(H,24,26)

> <PUBCHEM_IUPAC_INCHIKEY>
BOPSUAHGQHFKGG-UHFFFAOYSA-N

> <PUBCHEM_XLOGP3_AA>
3.8

> <PUBCHEM_EXACT_MASS>
348.184

> <PUBCHEM_MOLECULAR_FORMULA>
C22H24N2O2

> <PUBCHEM_MOLECULAR_WEIGHT>
348.446

> <PUBCHEM_OPENEYE_CAN_SMILES>
CC1=C(C=C(C=C1)C(=O)NC2CC2)C3=CC=C(C=C3)C(=O)NCC4CC4

> <PUBCHEM_OPENEYE_ISO_SMILES>
CC1=C(C=C(C=C1)C(=O)NC2CC2)C3=CC=C(C=C3)C(=O)NCC4CC4

> <PUBCHEM_CACTVS_TPSA>
58.2

> <PUBCHEM_MONOISOTOPIC_WEIGHT>
348.184

> <PUBCHEM_TOTAL_CHARGE>
0

> <PUBCHEM_HEAVY_ATOM_COUNT>
26

> <PUBCHEM_ATOM_DEF_STEREO_COUNT>
0

> <PUBCHEM_ATOM_UDEF_STEREO_COUNT>
0

> <PUBCHEM_BOND_DEF_STEREO_COUNT>
0

> <PUBCHEM_BOND_UDEF_STEREO_COUNT>
0

> <PUBCHEM_ISOTOPIC_ATOM_COUNT>
0

> <PUBCHEM_COMPONENT_COUNT>
1

> <PUBCHEM_CACTVS_TAUTO_COUNT>
20

> <PUBCHEM_COORDINATE_TYPE>
1
5
255

> <PUBCHEM_BONDANNOTATIONS>
14  16  8
14  18  8
15  21  8
15  22  8
16  17  8
17  20  8
18  23  8
19  24  8
19  25  8
20  23  8
21  24  8
22  25  8

$$$$
44588220
  -OEChem-11021605012D

 35 37  0     0  0  0  0  0  0999 V2000
    6.9786    5.2383    0.0000 F   0  0  0  0  0  0  0  0  0  0  0  0
    4.2690   -4.6183    0.0000 O   0  0  0  0  0  0  0  0  0  0  0  0
    3.4030   -0.1183    0.0000 N   0  0  0  0  0  0  0  0  0  0  0  0
    5.8517    0.7181    0.0000 N   0  0  0  0  0  0  0  0  0  0  0  0
    5.1825   -0.0250    0.0000 N   0  0  0  0  0  0  0  0  0  0  0  0
    2.5369   -4.6183    0.0000 N   0  0  0  0  0  0  0  0  0  0  0  0
    5.3517    1.5841    0.0000 C   0  0  0  0  0  0  0  0  0  0  0  0
    4.2690    0.3817    0.0000 C   0  0  0  0  0  0  0  0  0  0  0  0
    5.7584    2.4977    0.0000 C   0  0  0  0  0  0  0  0  0  0  0  0
    4.3735    1.3762    0.0000 C   0  0  0  0  0  0  0  0  0  0  0  0
    3.4030   -1.1183    0.0000 C   0  0  0  0  0  0  0  0  0  0  0  0
    6.7529    2.6022    0.0000 C   0  0  0  0  0  0  0  0  0  0  0  0
    5.1706    3.3067    0.0000 C   0  0  0  0  0  0  0  0  0  0  0  0
    2.5369   -1.6183    0.0000 C   0  0  0  0  0  0  0  0  0  0  0  0
    4.2690   -1.6183    0.0000 C   0  0  0  0  0  0  0  0  0  0  0  0
    3.4030   -3.1183    0.0000 C   0  0  0  0  0  0  0  0  0  0  0  0
    2.5369   -2.6183    0.0000 C   0  0  0  0  0  0  0  0  0  0  0  0
    4.2690   -2.6183    0.0000 C   0  0  0  0  0  0  0  0  0  0  0  0
    7.1597    3.5158    0.0000 C   0  0  0  0  0  0  0  0  0  0  0  0
    5.5774    4.2202    0.0000 C   0  0  0  0  0  0  0  0  0  0  0  0
    6.5719    4.3248    0.0000 C   0  0  0  0  0  0  0  0  0  0  0  0
    3.4030   -4.1183    0.0000 C   0  0  0  0  0  0  0  0  0  0  0  0
    3.9128    1.7911    0.0000 H   0  0  0  0  0  0  0  0  0  0  0  0
    2.8660    0.1917    0.0000 H   0  0  0  0  0  0  0  0  0  0  0  0
    6.4683    0.6533    0.0000 H   0  0  0  0  0  0  0  0  0  0  0  0
    7.1174    2.1006    0.0000 H   0  0  0  0  0  0  0  0  0  0  0  0
    4.5540    3.2419    0.0000 H   0  0  0  0  0  0  0  0  0  0  0  0
    2.0000   -1.3083    0.0000 H   0  0  0  0  0  0  0  0  0  0  0  0
    4.8059   -1.3083    0.0000 H   0  0  0  0  0  0  0  0  0  0  0  0
    2.0000   -2.9283    0.0000 H   0  0  0  0  0  0  0  0  0  0  0  0
    4.8059   -2.9283    0.0000 H   0  0  0  0  0  0  0  0  0  0  0  0
    7.7763    3.5806    0.0000 H   0  0  0  0  0  0  0  0  0  0  0  0
    5.2129    4.7218    0.0000 H   0  0  0  0  0  0  0  0  0  0  0  0
    2.5369   -5.2383    0.0000 H   0  0  0  0  0  0  0  0  0  0  0  0
    2.0000   -4.3083    0.0000 H   0  0  0  0  0  0  0  0  0  0  0  0
  1 21  1  0  0  0  0
  2 22  2  0  0  0  0
  3  8  1  0  0  0  0
  3 11  1  0  0  0  0
  3 24  1  0  0  0  0
  4  5  1  0  0  0  0
  4  7  1  0  0  0  0
  4 25  1  0  0  0  0
  5  8  2  0  0  0  0
  6 22  1  0  0  0  0
  6 34  1  0  0  0  0
  6 35  1  0  0  0  0
  7  9  1  0  0  0  0
  7 10  2  0  0  0  0
  8 10  1  0  0  0  0
  9 12  2  0  0  0  0
  9 13  1  0  0  0  0
 10 23  1  0  0  0  0
 11 14  2  0  0  0  0
 11 15  1  0  0  0  0
 12 19  1  0  0  0  0
 12 26  1  0  0  0  0
 13 20  2  0  0  0  0
 13 27  1  0  0  0  0
 14 17  1  0  0  0  0
 14 28  1  0  0  0  0
 15 18  2  0  0  0  0
 15 29  1  0  0  0  0
 16 17  2  0  0  0  0
 16 18  1  0  0  0  0
 16 22  1  0  0  0  0
 17 30  1  0  0  0  0
 18 31  1  0  0  0  0
 19 21  2  0  0  0  0
 19 32  1  0  0  0  0
 20 21  1  0  0  0  0
 20 33  1  0  0  0  0
M  END
> <PUBCHEM_COMPOUND_CID>
44588220

> <PUBCHEM_COMPOUND_CANONICALIZED>
1

> <PUBCHEM_CACTVS_COMPLEXITY>
378

> <PUBCHEM_CACTVS_HBOND_ACCEPTOR>
4

> <PUBCHEM_CACTVS_HBOND_DONOR>
3

> <PUBCHEM_CACTVS_ROTATABLE_BOND>
4

> <PUBCHEM_CACTVS_SUBSKEYS>
AAADccB7oQAAAAAAAAAAAAAAAAAAAWAAAAAwYAAAAAAAAAAB0AAAHwAYAAAADAiBnggx8JLjAACqAydycACSBAIlAgAduSEwZNiIIPLA3dGEpQhwmALIyacYiYCeCAAAAAAAAAAQAAAAAAAAAAAAAAAAAA==

> <PUBCHEM_IUPAC_OPENEYE_NAME>
4-[[5-(4-fluorophenyl)-1H-pyrazol-3-yl]amino]benzamide

> <PUBCHEM_IUPAC_CAS_NAME>
4-[[5-(4-fluorophenyl)-1H-pyrazol-3-yl]amino]benzamide

> <PUBCHEM_IUPAC_NAME>
4-[[5-(4-fluorophenyl)-1H-pyrazol-3-yl]amino]benzamide

> <PUBCHEM_IUPAC_SYSTEMATIC_NAME>
4-[[5-(4-fluorophenyl)-1H-pyrazol-3-yl]amino]benzamide

> <PUBCHEM_IUPAC_TRADITIONAL_NAME>
4-[[5-(4-fluorophenyl)-1H-pyrazol-3-yl]amino]benzamide

> <PUBCHEM_IUPAC_INCHI>
InChI=1S/C16H13FN4O/c17-12-5-1-10(2-6-12)14-9-15(21-20-14)19-13-7-3-11(4-8-13)16(18)22/h1-9H,(H2,18,22)(H2,19,20,21)

> <PUBCHEM_IUPAC_INCHIKEY>
QKAONCSNINNEGU-UHFFFAOYSA-N

> <PUBCHEM_XLOGP3_AA>
2.7

> <PUBCHEM_EXACT_MASS>
296.107

> <PUBCHEM_MOLECULAR_FORMULA>
C16H13FN4O

> <PUBCHEM_MOLECULAR_WEIGHT>
296.305

> <PUBCHEM_OPENEYE_CAN_SMILES>
C1=CC(=CC=C1C2=CC(=NN2)NC3=CC=C(C=C3)C(=O)N)F

> <PUBCHEM_OPENEYE_ISO_SMILES>
C1=CC(=CC=C1C2=CC(=NN2)NC3=CC=C(C=C3)C(=O)N)F

> <PUBCHEM_CACTVS_TPSA>
83.8

> <PUBCHEM_MONOISOTOPIC_WEIGHT>
296.107

> <PUBCHEM_TOTAL_CHARGE>
0

> <PUBCHEM_HEAVY_ATOM_COUNT>
22

> <PUBCHEM_ATOM_DEF_STEREO_COUNT>
0

> <PUBCHEM_ATOM_UDEF_STEREO_COUNT>
0

> <PUBCHEM_BOND_DEF_STEREO_COUNT>
0

> <PUBCHEM_BOND_UDEF_STEREO_COUNT>
0

> <PUBCHEM_ISOTOPIC_ATOM_COUNT>
0

> <PUBCHEM_COMPONENT_COUNT>
1

> <PUBCHEM_CACTVS_TAUTO_COUNT>
24

> <PUBCHEM_COORDINATE_TYPE>
1
5
255

> <PUBCHEM_BONDANNOTATIONS>
11  14  8
11  15  8
12  19  8
13  20  8
14  17  8
15  18  8
16  17  8
16  18  8
19  21  8
20  21  8
4  5  8
4  7  8
5  8  8
7  10  8
8  10  8
9  12  8
9  13  8

$$$$
290221
  -OEChem-11021605012D

 34 36  0     0  0  0  0  0  0999 V2000
    4.6783   -1.2916    0.0000 S   0  0  0  0  0  0  0  0  0  0  0  0
    6.2619   -2.2189    0.0000 O   0  0  0  0  0  0  0  0  0  0  0  0
    6.2619   -0.4869    0.0000 N   0  0  0  0  0  0  0  0  0  0  0  0
    5.2996    2.2189    0.0000 N   0  0  0  0  0  0  0  0  0  0  0  0
    2.0000    0.0131    0.0000 C   0  0  0  0  0  0  0  0  0  0  0  0
    2.0000   -0.9869    0.0000 C   0  0  0  0  0  0  0  0  0  0  0  0
    2.8660    0.5131    0.0000 C   0  0  0  0  0  0  0  0  0  0  0  0
    2.8660   -1.4869    0.0000 C   0  0  0  0  0  0  0  0  0  0  0  0
    3.7320    0.0131    0.0000 C   0  0  0  0  0  0  0  0  0  0  0  0
    3.7320   -0.9869    0.0000 C   0  0  0  0  0  0  0  0  0  0  0  0
    4.6783    0.3179    0.0000 C   0  0  0  0  0  0  0  0  0  0  0  0
    5.2619   -0.4869    0.0000 C   0  0  0  0  0  0  0  0  0  0  0  0
    4.9889    1.2684    0.0000 C   0  0  0  0  0  0  0  0  0  0  0  0
    6.7619   -1.3529    0.0000 C   0  0  0  0  0  0  0  0  0  0  0  0
    7.7619   -1.3529    0.0000 C   0  0  0  0  0  0  0  0  0  0  0  0
    8.2619   -0.4869    0.0000 C   0  0  0  0  0  0  0  0  0  0  0  0
    8.2619   -2.2189    0.0000 C   0  0  0  0  0  0  0  0  0  0  0  0
    9.2619   -0.4869    0.0000 C   0  0  0  0  0  0  0  0  0  0  0  0
    9.2619   -2.2189    0.0000 C   0  0  0  0  0  0  0  0  0  0  0  0
    9.7619   -1.3529    0.0000 C   0  0  0  0  0  0  0  0  0  0  0  0
    1.7880    0.5957    0.0000 H   0  0  0  0  0  0  0  0  0  0  0  0
    1.3894   -0.0945    0.0000 H   0  0  0  0  0  0  0  0  0  0  0  0
    1.3894   -0.8792    0.0000 H   0  0  0  0  0  0  0  0  0  0  0  0
    1.7880   -1.5695    0.0000 H   0  0  0  0  0  0  0  0  0  0  0  0
    3.2646    0.9881    0.0000 H   0  0  0  0  0  0  0  0  0  0  0  0
    2.4675    0.9881    0.0000 H   0  0  0  0  0  0  0  0  0  0  0  0
    2.4675   -1.9618    0.0000 H   0  0  0  0  0  0  0  0  0  0  0  0
    3.2646   -1.9618    0.0000 H   0  0  0  0  0  0  0  0  0  0  0  0
    6.5719    0.0501    0.0000 H   0  0  0  0  0  0  0  0  0  0  0  0
    7.9519    0.0501    0.0000 H   0  0  0  0  0  0  0  0  0  0  0  0
    7.9519   -2.7558    0.0000 H   0  0  0  0  0  0  0  0  0  0  0  0
    9.5719    0.0501    0.0000 H   0  0  0  0  0  0  0  0  0  0  0  0
    9.5719   -2.7558    0.0000 H   0  0  0  0  0  0  0  0  0  0  0  0
   10.3819   -1.3529    0.0000 H   0  0  0  0  0  0  0  0  0  0  0  0
  1 10  1  0  0  0  0
  1 12  1  0  0  0  0
  2 14  2  0  0  0  0
  3 12  1  0  0  0  0
  3 14  1  0  0  0  0
  3 29  1  0  0  0  0
  4 13  3  0  0  0  0
  5  6  1  0  0  0  0
  5  7  1  0  0  0  0
  5 21  1  0  0  0  0
  5 22  1  0  0  0  0
  6  8  1  0  0  0  0
  6 23  1  0  0  0  0
  6 24  1  0  0  0  0
  7  9  1  0  0  0  0
  7 25  1  0  0  0  0
  7 26  1  0  0  0  0
  8 10  1  0  0  0  0
  8 27  1  0  0  0  0
  8 28  1  0  0  0  0
  9 10  2  0  0  0  0
  9 11  1  0  0  0  0
 11 12  2  0  0  0  0
 11 13  1  0  0  0  0
 14 15  1  0  0  0  0
 15 16  2  0  0  0  0
 15 17  1  0  0  0  0
 16 18  1  0  0  0  0
 16 30  1  0  0  0  0
 17 19  2  0  0  0  0
 17 31  1  0  0  0  0
 18 20  2  0  0  0  0
 18 32  1  0  0  0  0
 19 20  1  0  0  0  0
 19 33  1  0  0  0  0
 20 34  1  0  0  0  0
M  END
> <PUBCHEM_COMPOUND_CID>
290221

> <PUBCHEM_COMPOUND_CANONICALIZED>
1

> <PUBCHEM_CACTVS_COMPLEXITY>
410

> <PUBCHEM_CACTVS_HBOND_ACCEPTOR>
3

> <PUBCHEM_CACTVS_HBOND_DONOR>
1

> <PUBCHEM_CACTVS_ROTATABLE_BOND>
2

> <PUBCHEM_CACTVS_SUBSKEYS>
AAADccB7IABAAAAAAAAAAAAAAAAAASAAAAAwYAAAAAAAAEgBwAAAHgQQAAAADACB2AAwgYLAAAicBiFSUACjAIBlCBkIiBEARMgIoDLglZGEIQhghADoyY8YiMCOgAAAAAAAAAAAAAAAAAgAAAAAAAAAAA==

> <PUBCHEM_IUPAC_OPENEYE_NAME>
N-(3-cyano-4,5,6,7-tetrahydrobenzothiophen-2-yl)benzamide

> <PUBCHEM_IUPAC_CAS_NAME>
N-(3-cyano-4,5,6,7-tetrahydro-1-benzothiophen-2-yl)benzamide

> <PUBCHEM_IUPAC_NAME>
N-(3-cyano-4,5,6,7-tetrahydro-1-benzothiophen-2-yl)benzamide

> <PUBCHEM_IUPAC_SYSTEMATIC_NAME>
N-(3-cyano-4,5,6,7-tetrahydro-1-benzothiophen-2-yl)benzamide

> <PUBCHEM_IUPAC_TRADITIONAL_NAME>
N-(3-cyano-4,5,6,7-tetrahydrobenzothiophen-2-yl)benzamide

> <PUBCHEM_IUPAC_INCHI>
InChI=1S/C16H14N2OS/c17-10-13-12-8-4-5-9-14(12)20-16(13)18-15(19)11-6-2-1-3-7-11/h1-3,6-7H,4-5,8-9H2,(H,18,19)

> <PUBCHEM_IUPAC_INCHIKEY>
OKFHWMLGUMHKFC-UHFFFAOYSA-N

> <PUBCHEM_XLOGP3_AA>
4.3

> <PUBCHEM_EXACT_MASS>
282.083

> <PUBCHEM_MOLECULAR_FORMULA>
C16H14N2OS

> <PUBCHEM_MOLECULAR_WEIGHT>
282.361

> <PUBCHEM_OPENEYE_CAN_SMILES>
C1CCC2=C(C1)C(=C(S2)NC(=O)C3=CC=CC=C3)C#N

> <PUBCHEM_OPENEYE_ISO_SMILES>
C1CCC2=C(C1)C(=C(S2)NC(=O)C3=CC=CC=C3)C#N

> <PUBCHEM_CACTVS_TPSA>
81.1

> <PUBCHEM_MONOISOTOPIC_WEIGHT>
282.083

> <PUBCHEM_TOTAL_CHARGE>
0

> <PUBCHEM_HEAVY_ATOM_COUNT>
20

> <PUBCHEM_ATOM_DEF_STEREO_COUNT>
0

> <PUBCHEM_ATOM_UDEF_STEREO_COUNT>
0

> <PUBCHEM_BOND_DEF_STEREO_COUNT>
0

> <PUBCHEM_BOND_UDEF_STEREO_COUNT>
0

> <PUBCHEM_ISOTOPIC_ATOM_COUNT>
0

> <PUBCHEM_COMPONENT_COUNT>
1

> <PUBCHEM_CACTVS_TAUTO_COUNT>
3

> <PUBCHEM_COORDINATE_TYPE>
1
5
255

> <PUBCHEM_BONDANNOTATIONS>
1  10  8
1  12  8
11  12  8
15  16  8
15  17  8
16  18  8
17  19  8
18  20  8
19  20  8
9  10  8
9  11  8

$$$$
10308737
  -OEChem-11021605012D

 50 52  0     0  0  0  0  0  0999 V2000
    7.1962   -0.6900    0.0000 N   0  0  0  0  0  0  0  0  0  0  0  0
    6.3301    0.8100    0.0000 N   0  0  0  0  0  0  0  0  0  0  0  0
    2.8660    3.8100    0.0000 N   0  0  0  0  0  0  0  0  0  0  0  0
    8.9561    2.3447    0.0000 N   0  0  0  0  0  0  0  0  0  0  0  0
    4.5981   -4.1900    0.0000 N   0  0  0  0  0  0  0  0  0  0  0  0
    6.3301   -2.1900    0.0000 C   0  0  0  0  0  0  0  0  0  0  0  0
    6.3301   -1.1900    0.0000 C   0  0  0  0  0  0  0  0  0  0  0  0
    5.4641   -2.6900    0.0000 C   0  0  0  0  0  0  0  0  0  0  0  0
    7.1962    0.3100    0.0000 C   0  0  0  0  0  0  0  0  0  0  0  0
    8.0622    0.8100    0.0000 C   0  0  0  0  0  0  0  0  0  0  0  0
    6.3301    1.8100    0.0000 C   0  0  0  0  0  0  0  0  0  0  0  0
    5.4641   -3.6900    0.0000 C   0  0  0  0  0  0  0  0  0  0  0  0
    8.0622    1.8100    0.0000 C   0  0  0  0  0  0  0  0  0  0  0  0
    5.4641    2.3100    0.0000 C   0  0  0  0  0  0  0  0  0  0  0  0
    7.1962    2.3100    0.0000 C   0  0  0  0  0  0  0  0  0  0  0  0
    8.9561    0.2753    0.0000 C   0  0  0  0  0  0  0  0  0  0  0  0
    3.7320    3.3100    0.0000 C   0  0  0  0  0  0  0  0  0  0  0  0
    5.4641    3.3100    0.0000 C   0  0  0  0  0  0  0  0  0  0  0  0
    4.5981    1.8100    0.0000 C   0  0  0  0  0  0  0  0  0  0  0  0
    4.5981    3.8100    0.0000 C   0  0  0  0  0  0  0  0  0  0  0  0
    3.7320    2.3100    0.0000 C   0  0  0  0  0  0  0  0  0  0  0  0
    9.8622    0.7892    0.0000 C   0  0  0  0  0  0  0  0  0  0  0  0
    9.8622    1.8308    0.0000 C   0  0  0  0  0  0  0  0  0  0  0  0
    2.8660    4.8100    0.0000 C   0  0  0  0  0  0  0  0  0  0  0  0
    2.0000    3.3100    0.0000 C   0  0  0  0  0  0  0  0  0  0  0  0
    6.5422   -2.7726    0.0000 H   0  0  0  0  0  0  0  0  0  0  0  0
    6.9407   -2.0823    0.0000 H   0  0  0  0  0  0  0  0  0  0  0  0
    6.1181   -0.6074    0.0000 H   0  0  0  0  0  0  0  0  0  0  0  0
    5.7196   -1.2977    0.0000 H   0  0  0  0  0  0  0  0  0  0  0  0
    5.2520   -2.1074    0.0000 H   0  0  0  0  0  0  0  0  0  0  0  0
    4.8535   -2.7977    0.0000 H   0  0  0  0  0  0  0  0  0  0  0  0
    7.7331   -1.0000    0.0000 H   0  0  0  0  0  0  0  0  0  0  0  0
    5.6762   -4.2726    0.0000 H   0  0  0  0  0  0  0  0  0  0  0  0
    6.0747   -3.5823    0.0000 H   0  0  0  0  0  0  0  0  0  0  0  0
    7.1962    2.9300    0.0000 H   0  0  0  0  0  0  0  0  0  0  0  0
    8.9490   -0.3446    0.0000 H   0  0  0  0  0  0  0  0  0  0  0  0
    6.0010    3.6200    0.0000 H   0  0  0  0  0  0  0  0  0  0  0  0
    4.5981    1.1900    0.0000 H   0  0  0  0  0  0  0  0  0  0  0  0
    4.5981    4.4300    0.0000 H   0  0  0  0  0  0  0  0  0  0  0  0
    3.1951    2.0000    0.0000 H   0  0  0  0  0  0  0  0  0  0  0  0
   10.3979    0.4771    0.0000 H   0  0  0  0  0  0  0  0  0  0  0  0
    4.5981   -4.8100    0.0000 H   0  0  0  0  0  0  0  0  0  0  0  0
    4.0611   -3.8800    0.0000 H   0  0  0  0  0  0  0  0  0  0  0  0
   10.3979    2.1429    0.0000 H   0  0  0  0  0  0  0  0  0  0  0  0
    3.4860    4.8100    0.0000 H   0  0  0  0  0  0  0  0  0  0  0  0
    1.6900    3.8469    0.0000 H   0  0  0  0  0  0  0  0  0  0  0  0
    1.4631    3.0000    0.0000 H   0  0  0  0  0  0  0  0  0  0  0  0
    2.3100    2.7731    0.0000 H   0  0  0  0  0  0  0  0  0  0  0  0
    2.8660    5.4300    0.0000 H   0  0  0  0  0  0  0  0  0  0  0  0
    2.2460    4.8100    0.0000 H   0  0  0  0  0  0  0  0  0  0  0  0
  1  7  1  0  0  0  0
  1  9  1  0  0  0  0
  1 32  1  0  0  0  0
  2  9  1  0  0  0  0
  2 11  2  0  0  0  0
  3 17  1  0  0  0  0
  3 24  1  0  0  0  0
  3 25  1  0  0  0  0
  4 13  1  0  0  0  0
  4 23  2  0  0  0  0
  5 12  1  0  0  0  0
  5 42  1  0  0  0  0
  5 43  1  0  0  0  0
  6  7  1  0  0  0  0
  6  8  1  0  0  0  0
  6 26  1  0  0  0  0
  6 27  1  0  0  0  0
  7 28  1  0  0  0  0
  7 29  1  0  0  0  0
  8 12  1  0  0  0  0
  8 30  1  0  0  0  0
  8 31  1  0  0  0  0
  9 10  2  0  0  0  0
 10 13  1  0  0  0  0
 10 16  1  0  0  0  0
 11 14  1  0  0  0  0
 11 15  1  0  0  0  0
 12 33  1  0  0  0  0
 12 34  1  0  0  0  0
 13 15  2  0  0  0  0
 14 18  2  0  0  0  0
 14 19  1  0  0  0  0
 15 35  1  0  0  0  0
 16 22  2  0  0  0  0
 16 36  1  0  0  0  0
 17 20  2  0  0  0  0
 17 21  1  0  0  0  0
 18 20  1  0  0  0  0
 18 37  1  0  0  0  0
 19 21  2  0  0  0  0
 19 38  1  0  0  0  0
 20 39  1  0  0  0  0
 21 40  1  0  0  0  0
 22 23  1  0  0  0  0
 22 41  1  0  0  0  0
 23 44  1  0  0  0  0
 24 45  1  0  0  0  0
 24 49  1  0  0  0  0
 24 50  1  0  0  0  0
 25 46  1  0  0  0  0
 25 47  1  0  0  0  0
 25 48  1  0  0  0  0
M  END
> <PUBCHEM_COMPOUND_CID>
10308737

> <PUBCHEM_COMPOUND_CANONICALIZED>
1

> <PUBCHEM_CACTVS_COMPLEXITY>
380

> <PUBCHEM_CACTVS_HBOND_ACCEPTOR>
5

> <PUBCHEM_CACTVS_HBOND_DONOR>
2

> <PUBCHEM_CACTVS_ROTATABLE_BOND>
7

> <PUBCHEM_CACTVS_SUBSKEYS>
AAADceB7gAAAAAAAAAAAAAAAAAAAAAAAAAA8WIAAAAAAAACx/AAAHAAQAAAADAjBHgQ/8PPIEACgAzZnZACCgCkxAiAJ2KA4ZJiIIOLA2dGEJAhokALIyCcQgMAOCAAAAAAAAAAQAAAAAAAAAAAAAAAAAA==

> <PUBCHEM_IUPAC_OPENEYE_NAME>
N'-[7-[4-(dimethylamino)phenyl]-1,6-naphthyridin-5-yl]butane-1,4-diamine

> <PUBCHEM_IUPAC_CAS_NAME>
N'-[7-[4-(dimethylamino)phenyl]-1,6-naphthyridin-5-yl]butane-1,4-diamine

> <PUBCHEM_IUPAC_NAME>
N'-[7-[4-(dimethylamino)phenyl]-1,6-naphthyridin-5-yl]butane-1,4-diamine

> <PUBCHEM_IUPAC_SYSTEMATIC_NAME>
N'-[7-[4-(dimethylamino)phenyl]-1,6-naphthyridin-5-yl]butane-1,4-diamine

> <PUBCHEM_IUPAC_TRADITIONAL_NAME>
[4-[5-(4-aminobutylamino)-1,6-naphthyridin-7-yl]phenyl]-dimethyl-amine

> <PUBCHEM_IUPAC_INCHI>
InChI=1S/C20H25N5/c1-25(2)16-9-7-15(8-10-16)18-14-19-17(6-5-13-22-19)20(24-18)23-12-4-3-11-21/h5-10,13-14H,3-4,11-12,21H2,1-2H3,(H,23,24)

> <PUBCHEM_IUPAC_INCHIKEY>
SBGMPUIVPOGTGN-UHFFFAOYSA-N

> <PUBCHEM_XLOGP3_AA>
3

> <PUBCHEM_EXACT_MASS>
335.211

> <PUBCHEM_MOLECULAR_FORMULA>
C20H25N5

> <PUBCHEM_MOLECULAR_WEIGHT>
335.455

> <PUBCHEM_OPENEYE_CAN_SMILES>
CN(C)C1=CC=C(C=C1)C2=NC(=C3C=CC=NC3=C2)NCCCCN

> <PUBCHEM_OPENEYE_ISO_SMILES>
CN(C)C1=CC=C(C=C1)C2=NC(=C3C=CC=NC3=C2)NCCCCN

> <PUBCHEM_CACTVS_TPSA>
67.1

> <PUBCHEM_MONOISOTOPIC_WEIGHT>
335.211

> <PUBCHEM_TOTAL_CHARGE>
0

> <PUBCHEM_HEAVY_ATOM_COUNT>
25

> <PUBCHEM_ATOM_DEF_STEREO_COUNT>
0

> <PUBCHEM_ATOM_UDEF_STEREO_COUNT>
0

> <PUBCHEM_BOND_DEF_STEREO_COUNT>
0

> <PUBCHEM_BOND_UDEF_STEREO_COUNT>
0

> <PUBCHEM_ISOTOPIC_ATOM_COUNT>
0

> <PUBCHEM_COMPONENT_COUNT>
1

> <PUBCHEM_CACTVS_TAUTO_COUNT>
4

> <PUBCHEM_COORDINATE_TYPE>
1
5
255

> <PUBCHEM_BONDANNOTATIONS>
10  13  8
10  16  8
11  15  8
13  15  8
14  18  8
14  19  8
16  22  8
17  20  8
17  21  8
18  20  8
19  21  8
2  11  8
2  9  8
22  23  8
4  13  8
4  23  8
9  10  8

$$$$
6539569
  -OEChem-11021605012D

 36 39  0     0  0  0  0  0  0999 V2000
   10.6363    0.5219    0.0000 O   0  0  0  0  0  0  0  0  0  0  0  0
    2.5369   -1.1952    0.0000 O   0  0  0  0  0  0  0  0  0  0  0  0
    8.9900    1.0600    0.0000 N   0  0  0  0  0  0  0  0  0  0  0  0
    9.2629   -0.6952    0.0000 N   0  0  0  0  0  0  0  0  0  0  0  0
    8.6793   -1.5000    0.0000 N   0  0  0  0  0  0  0  0  0  0  0  0
    6.8671   -1.6952    0.0000 N   0  0  0  0  0  0  0  0  0  0  0  0
   10.2791    2.2167    0.0000 C   0  0  0  0  0  0  0  0  0  0  0  0
   11.0234    2.8846    0.0000 C   0  0  0  0  0  0  0  0  0  0  0  0
   10.0729    3.1952    0.0000 C   0  0  0  0  0  0  0  0  0  0  0  0
    9.9685    1.2662    0.0000 C   0  0  0  0  0  0  0  0  0  0  0  0
    8.6793    0.1095    0.0000 C   0  0  0  0  0  0  0  0  0  0  0  0
    7.7331   -0.1952    0.0000 C   0  0  0  0  0  0  0  0  0  0  0  0
    7.7331   -1.1952    0.0000 C   0  0  0  0  0  0  0  0  0  0  0  0
    6.8671    0.3048    0.0000 C   0  0  0  0  0  0  0  0  0  0  0  0
    6.0010   -1.1952    0.0000 C   0  0  0  0  0  0  0  0  0  0  0  0
    6.0010   -0.1952    0.0000 C   0  0  0  0  0  0  0  0  0  0  0  0
    5.1350   -1.6952    0.0000 C   0  0  0  0  0  0  0  0  0  0  0  0
    4.2690   -1.1952    0.0000 C   0  0  0  0  0  0  0  0  0  0  0  0
    5.1350   -2.6952    0.0000 C   0  0  0  0  0  0  0  0  0  0  0  0
    3.4030   -1.6952    0.0000 C   0  0  0  0  0  0  0  0  0  0  0  0
    4.2690   -3.1952    0.0000 C   0  0  0  0  0  0  0  0  0  0  0  0
    3.4030   -2.6952    0.0000 C   0  0  0  0  0  0  0  0  0  0  0  0
    9.6600    2.2503    0.0000 H   0  0  0  0  0  0  0  0  0  0  0  0
   11.5113    2.5020    0.0000 H   0  0  0  0  0  0  0  0  0  0  0  0
   11.3155    3.4315    0.0000 H   0  0  0  0  0  0  0  0  0  0  0  0
   10.1603    3.8091    0.0000 H   0  0  0  0  0  0  0  0  0  0  0  0
    9.4533    3.1747    0.0000 H   0  0  0  0  0  0  0  0  0  0  0  0
    8.5759    1.5215    0.0000 H   0  0  0  0  0  0  0  0  0  0  0  0
    6.8671    0.9248    0.0000 H   0  0  0  0  0  0  0  0  0  0  0  0
    8.8719   -2.0893    0.0000 H   0  0  0  0  0  0  0  0  0  0  0  0
    5.4641    0.1148    0.0000 H   0  0  0  0  0  0  0  0  0  0  0  0
    4.2690   -0.5752    0.0000 H   0  0  0  0  0  0  0  0  0  0  0  0
    5.6720   -3.0053    0.0000 H   0  0  0  0  0  0  0  0  0  0  0  0
    4.2690   -3.8152    0.0000 H   0  0  0  0  0  0  0  0  0  0  0  0
    2.8660   -3.0053    0.0000 H   0  0  0  0  0  0  0  0  0  0  0  0
    2.0000   -1.5052    0.0000 H   0  0  0  0  0  0  0  0  0  0  0  0
  1 10  2  0  0  0  0
  2 20  1  0  0  0  0
  2 36  1  0  0  0  0
  3 10  1  0  0  0  0
  3 11  1  0  0  0  0
  3 28  1  0  0  0  0
  4  5  1  0  0  0  0
  4 11  2  0  0  0  0
  5 13  1  0  0  0  0
  5 30  1  0  0  0  0
  6 13  1  0  0  0  0
  6 15  2  0  0  0  0
  7  8  1  0  0  0  0
  7  9  1  0  0  0  0
  7 10  1  0  0  0  0
  7 23  1  0  0  0  0
  8  9  1  0  0  0  0
  8 24  1  0  0  0  0
  8 25  1  0  0  0  0
  9 26  1  0  0  0  0
  9 27  1  0  0  0  0
 11 12  1  0  0  0  0
 12 13  2  0  0  0  0
 12 14  1  0  0  0  0
 14 16  2  0  0  0  0
 14 29  1  0  0  0  0
 15 16  1  0  0  0  0
 15 17  1  0  0  0  0
 16 31  1  0  0  0  0
 17 18  2  0  0  0  0
 17 19  1  0  0  0  0
 18 20  1  0  0  0  0
 18 32  1  0  0  0  0
 19 21  2  0  0  0  0
 19 33  1  0  0  0  0
 20 22  2  0  0  0  0
 21 22  1  0  0  0  0
 21 34  1  0  0  0  0
 22 35  1  0  0  0  0
M  END
> <PUBCHEM_COMPOUND_CID>
6539569

> <PUBCHEM_COMPOUND_CANONICALIZED>
1

> <PUBCHEM_CACTVS_COMPLEXITY>
428

> <PUBCHEM_CACTVS_HBOND_ACCEPTOR>
4

> <PUBCHEM_CACTVS_HBOND_DONOR>
3

> <PUBCHEM_CACTVS_ROTATABLE_BOND>
3

> <PUBCHEM_CACTVS_SUBSKEYS>
AAADccB7sAAAAAAAAAAAAAAAGAAAAWAAAAA8QAAAAAAAAFgB/AAAHgAYCAAADQyBnwAxtt7rEgCqAydydACShCuhIqAduSE2bJiILvLC2dOE9Ah03RPI2CewwPAOAAABAAAAAAAAAAIAAAAAAAAAAAAAAA==

> <PUBCHEM_IUPAC_OPENEYE_NAME>
N-[6-(3-hydroxyphenyl)-1H-pyrazolo[3,4-b]pyridin-3-yl]cyclopropanecarboxamide

> <PUBCHEM_IUPAC_CAS_NAME>
N-[6-(3-hydroxyphenyl)-1H-pyrazolo[3,4-b]pyridin-3-yl]cyclopropanecarboxamide

> <PUBCHEM_IUPAC_NAME>
N-[6-(3-hydroxyphenyl)-1H-pyrazolo[3,4-b]pyridin-3-yl]cyclopropanecarboxamide

> <PUBCHEM_IUPAC_SYSTEMATIC_NAME>
N-[6-(3-hydroxyphenyl)-1H-pyrazolo[3,4-b]pyridin-3-yl]cyclopropanecarboxamide

> <PUBCHEM_IUPAC_TRADITIONAL_NAME>
N-[6-(3-hydroxyphenyl)-1H-pyrazolo[3,4-b]pyridin-3-yl]cyclopropanecarboxamide

> <PUBCHEM_IUPAC_INCHI>
InChI=1S/C16H14N4O2/c21-11-3-1-2-10(8-11)13-7-6-12-14(17-13)19-20-15(12)18-16(22)9-4-5-9/h1-3,6-9,21H,4-5H2,(H2,17,18,19,20,22)

> <PUBCHEM_IUPAC_INCHIKEY>
AXWDQRXGOKDXJT-UHFFFAOYSA-N

> <PUBCHEM_XLOGP3_AA>
2.1

> <PUBCHEM_EXACT_MASS>
294.112

> <PUBCHEM_MOLECULAR_FORMULA>
C16H14N4O2

> <PUBCHEM_MOLECULAR_WEIGHT>
294.314

> <PUBCHEM_OPENEYE_CAN_SMILES>
C1CC1C(=O)NC2=NNC3=C2C=CC(=N3)C4=CC(=CC=C4)O

> <PUBCHEM_OPENEYE_ISO_SMILES>
C1CC1C(=O)NC2=NNC3=C2C=CC(=N3)C4=CC(=CC=C4)O

> <PUBCHEM_CACTVS_TPSA>
90.9

> <PUBCHEM_MONOISOTOPIC_WEIGHT>
294.112

> <PUBCHEM_TOTAL_CHARGE>
0

> <PUBCHEM_HEAVY_ATOM_COUNT>
22

> <PUBCHEM_ATOM_DEF_STEREO_COUNT>
0

> <PUBCHEM_ATOM_UDEF_STEREO_COUNT>
0

> <PUBCHEM_BOND_DEF_STEREO_COUNT>
0

> <PUBCHEM_BOND_UDEF_STEREO_COUNT>
0

> <PUBCHEM_ISOTOPIC_ATOM_COUNT>
0

> <PUBCHEM_COMPONENT_COUNT>
1

> <PUBCHEM_CACTVS_TAUTO_COUNT>
998

> <PUBCHEM_COORDINATE_TYPE>
1
5
255

> <PUBCHEM_BONDANNOTATIONS>
11  12  8
12  13  8
12  14  8
14  16  8
15  16  8
17  18  8
17  19  8
18  20  8
19  21  8
20  22  8
21  22  8
4  11  8
4  5  8
5  13  8
6  13  8
6  15  8

$$$$
5494449
  -OEChem-11021605012D

 61 65  0     0  0  0  0  0  0999 V2000
    6.3285   -1.3261    0.0000 S   0  0  0  0  0  0  0  0  0  0  0  0
   10.6587   -0.8261    0.0000 O   0  0  0  0  0  0  0  0  0  0  0  0
    9.7926    0.6739    0.0000 N   0  0  0  0  0  0  0  0  0  0  0  0
    4.5965    1.6739    0.0000 N   0  0  0  0  0  0  0  0  0  0  0  0
    4.5965    3.6739    0.0000 N   0  0  0  0  0  0  0  0  0  0  0  0
    5.4625    0.1739    0.0000 N   0  0  0  0  0  0  0  0  0  0  0  0
    4.5965   -1.3261    0.0000 N   0  0  0  0  0  0  0  0  0  0  0  0
    2.8644   -1.3261    0.0000 N   0  0  0  0  0  0  0  0  0  0  0  0
    2.0554   -2.9139    0.0000 N   0  0  0  0  0  0  0  0  0  0  0  0
    2.3644   -3.8649    0.0000 N   0  0  0  0  0  0  0  0  0  0  0  0
   11.5247    0.6739    0.0000 C   0  0  0  0  0  0  0  0  0  0  0  0
   12.5247    0.6739    0.0000 C   0  0  0  0  0  0  0  0  0  0  0  0
   12.0247    1.5400    0.0000 C   0  0  0  0  0  0  0  0  0  0  0  0
   10.6587    0.1739    0.0000 C   0  0  0  0  0  0  0  0  0  0  0  0
    5.4625    2.1739    0.0000 C   0  0  0  0  0  0  0  0  0  0  0  0
    3.7304    2.1739    0.0000 C   0  0  0  0  0  0  0  0  0  0  0  0
    3.7304    3.1739    0.0000 C   0  0  0  0  0  0  0  0  0  0  0  0
    5.4625    3.1739    0.0000 C   0  0  0  0  0  0  0  0  0  0  0  0
    4.5965    0.6739    0.0000 C   0  0  0  0  0  0  0  0  0  0  0  0
    8.9266    0.1739    0.0000 C   0  0  0  0  0  0  0  0  0  0  0  0
    4.5965    4.6739    0.0000 C   0  0  0  0  0  0  0  0  0  0  0  0
    3.7304    0.1739    0.0000 C   0  0  0  0  0  0  0  0  0  0  0  0
    8.0606    0.6739    0.0000 C   0  0  0  0  0  0  0  0  0  0  0  0
    8.9266   -0.8261    0.0000 C   0  0  0  0  0  0  0  0  0  0  0  0
    3.7304   -0.8261    0.0000 C   0  0  0  0  0  0  0  0  0  0  0  0
    5.4625   -0.8261    0.0000 C   0  0  0  0  0  0  0  0  0  0  0  0
    7.1946   -0.8261    0.0000 C   0  0  0  0  0  0  0  0  0  0  0  0
    7.1946    0.1739    0.0000 C   0  0  0  0  0  0  0  0  0  0  0  0
    8.0606   -1.3261    0.0000 C   0  0  0  0  0  0  0  0  0  0  0  0
    2.8644   -2.3261    0.0000 C   0  0  0  0  0  0  0  0  0  0  0  0
    3.6734   -2.9139    0.0000 C   0  0  0  0  0  0  0  0  0  0  0  0
    3.3644   -3.8649    0.0000 C   0  0  0  0  0  0  0  0  0  0  0  0
    3.9522   -4.6739    0.0000 C   0  0  0  0  0  0  0  0  0  0  0  0
   11.6851    0.0751    0.0000 H   0  0  0  0  0  0  0  0  0  0  0  0
   12.4996    1.9385    0.0000 H   0  0  0  0  0  0  0  0  0  0  0  0
   11.5497    1.9385    0.0000 H   0  0  0  0  0  0  0  0  0  0  0  0
   12.6323    0.0633    0.0000 H   0  0  0  0  0  0  0  0  0  0  0  0
   13.1073    0.8860    0.0000 H   0  0  0  0  0  0  0  0  0  0  0  0
    5.6746    1.5913    0.0000 H   0  0  0  0  0  0  0  0  0  0  0  0
    6.0731    2.2816    0.0000 H   0  0  0  0  0  0  0  0  0  0  0  0
    3.1199    2.2816    0.0000 H   0  0  0  0  0  0  0  0  0  0  0  0
    3.5184    1.5913    0.0000 H   0  0  0  0  0  0  0  0  0  0  0  0
    3.5184    3.7565    0.0000 H   0  0  0  0  0  0  0  0  0  0  0  0
    3.1199    3.0663    0.0000 H   0  0  0  0  0  0  0  0  0  0  0  0
    6.0731    3.0663    0.0000 H   0  0  0  0  0  0  0  0  0  0  0  0
    5.6746    3.7565    0.0000 H   0  0  0  0  0  0  0  0  0  0  0  0
    9.7926    1.2939    0.0000 H   0  0  0  0  0  0  0  0  0  0  0  0
    5.2165    4.6739    0.0000 H   0  0  0  0  0  0  0  0  0  0  0  0
    4.5965    5.2939    0.0000 H   0  0  0  0  0  0  0  0  0  0  0  0
    3.9765    4.6739    0.0000 H   0  0  0  0  0  0  0  0  0  0  0  0
    3.1935    0.4839    0.0000 H   0  0  0  0  0  0  0  0  0  0  0  0
    8.0606    1.2939    0.0000 H   0  0  0  0  0  0  0  0  0  0  0  0
    9.4635   -1.1361    0.0000 H   0  0  0  0  0  0  0  0  0  0  0  0
    6.6576    0.4839    0.0000 H   0  0  0  0  0  0  0  0  0  0  0  0
    8.0606   -1.9461    0.0000 H   0  0  0  0  0  0  0  0  0  0  0  0
    2.3275   -1.0161    0.0000 H   0  0  0  0  0  0  0  0  0  0  0  0
    4.2631   -2.7223    0.0000 H   0  0  0  0  0  0  0  0  0  0  0  0
    2.0000   -4.3665    0.0000 H   0  0  0  0  0  0  0  0  0  0  0  0
    3.4506   -5.0384    0.0000 H   0  0  0  0  0  0  0  0  0  0  0  0
    4.3166   -5.1755    0.0000 H   0  0  0  0  0  0  0  0  0  0  0  0
    4.4538   -4.3095    0.0000 H   0  0  0  0  0  0  0  0  0  0  0  0
  1 26  1  0  0  0  0
  1 27  1  0  0  0  0
  2 14  2  0  0  0  0
  3 14  1  0  0  0  0
  3 20  1  0  0  0  0
  3 47  1  0  0  0  0
  4 15  1  0  0  0  0
  4 16  1  0  0  0  0
  4 19  1  0  0  0  0
  5 17  1  0  0  0  0
  5 18  1  0  0  0  0
  5 21  1  0  0  0  0
  6 19  2  0  0  0  0
  6 26  1  0  0  0  0
  7 25  1  0  0  0  0
  7 26  2  0  0  0  0
  8 25  1  0  0  0  0
  8 30  1  0  0  0  0
  8 56  1  0  0  0  0
  9 10  1  0  0  0  0
  9 30  2  0  0  0  0
 10 32  1  0  0  0  0
 10 58  1  0  0  0  0
 11 12  1  0  0  0  0
 11 13  1  0  0  0  0
 11 14  1  0  0  0  0
 11 34  1  0  0  0  0
 12 13  1  0  0  0  0
 12 37  1  0  0  0  0
 12 38  1  0  0  0  0
 13 35  1  0  0  0  0
 13 36  1  0  0  0  0
 15 18  1  0  0  0  0
 15 39  1  0  0  0  0
 15 40  1  0  0  0  0
 16 17  1  0  0  0  0
 16 41  1  0  0  0  0
 16 42  1  0  0  0  0
 17 43  1  0  0  0  0
 17 44  1  0  0  0  0
 18 45  1  0  0  0  0
 18 46  1  0  0  0  0
 19 22  1  0  0  0  0
 20 23  2  0  0  0  0
 20 24  1  0  0  0  0
 21 48  1  0  0  0  0
 21 49  1  0  0  0  0
 21 50  1  0  0  0  0
 22 25  2  0  0  0  0
 22 51  1  0  0  0  0
 23 28  1  0  0  0  0
 23 52  1  0  0  0  0
 24 29  2  0  0  0  0
 24 53  1  0  0  0  0
 27 28  2  0  0  0  0
 27 29  1  0  0  0  0
 28 54  1  0  0  0  0
 29 55  1  0  0  0  0
 30 31  1  0  0  0  0
 31 32  2  0  0  0  0
 31 57  1  0  0  0  0
 32 33  1  0  0  0  0
 33 59  1  0  0  0  0
 33 60  1  0  0  0  0
 33 61  1  0  0  0  0
M  END
> <PUBCHEM_COMPOUND_CID>
5494449

> <PUBCHEM_COMPOUND_CANONICALIZED>
1

> <PUBCHEM_CACTVS_COMPLEXITY>
650

> <PUBCHEM_CACTVS_HBOND_ACCEPTOR>
8

> <PUBCHEM_CACTVS_HBOND_DONOR>
3

> <PUBCHEM_CACTVS_ROTATABLE_BOND>
7

> <PUBCHEM_CACTVS_SUBSKEYS>
AAADceB74ABAAAAAAAAAAAAAGAAAAWAAAAA8WIAAAAAAAAAB8AAAHgQYAAAADQjB1gQz8ZfrEAiqASdydACS1CthCrAduTk4ZJiIaHLg2dGUpAh4nALIyCcQAAAAAAQAAAAAAAAACAAAAAAAAAAAAAAAAA==

> <PUBCHEM_IUPAC_OPENEYE_NAME>
N-[4-[4-(4-methylpiperazin-1-yl)-6-[(5-methyl-1H-pyrazol-3-yl)amino]pyrimidin-2-yl]sulfanylphenyl]cyclopropanecarboxamide

> <PUBCHEM_IUPAC_CAS_NAME>
N-[4-[[4-(4-methyl-1-piperazinyl)-6-[(5-methyl-1H-pyrazol-3-yl)amino]-2-pyrimidinyl]thio]phenyl]cyclopropanecarboxamide

> <PUBCHEM_IUPAC_NAME>
N-[4-[4-(4-methylpiperazin-1-yl)-6-[(5-methyl-1H-pyrazol-3-yl)amino]pyrimidin-2-yl]sulfanylphenyl]cyclopropanecarboxamide

> <PUBCHEM_IUPAC_SYSTEMATIC_NAME>
N-[4-[4-(4-methylpiperazin-1-yl)-6-[(5-methyl-1H-pyrazol-3-yl)amino]pyrimidin-2-yl]sulfanylphenyl]cyclopropanecarboxamide

> <PUBCHEM_IUPAC_TRADITIONAL_NAME>
N-[4-[[4-(4-methylpiperazino)-6-[(5-methyl-1H-pyrazol-3-yl)amino]pyrimidin-2-yl]thio]phenyl]cyclopropanecarboxamide

> <PUBCHEM_IUPAC_INCHI>
InChI=1S/C23H28N8OS/c1-15-13-20(29-28-15)25-19-14-21(31-11-9-30(2)10-12-31)27-23(26-19)33-18-7-5-17(6-8-18)24-22(32)16-3-4-16/h5-8,13-14,16H,3-4,9-12H2,1-2H3,(H,24,32)(H2,25,26,27,28,29)

> <PUBCHEM_IUPAC_INCHIKEY>
GCIKSSRWRFVXBI-UHFFFAOYSA-N

> <PUBCHEM_XLOGP3_AA>
3.4

> <PUBCHEM_EXACT_MASS>
464.211

> <PUBCHEM_MOLECULAR_FORMULA>
C23H28N8OS

> <PUBCHEM_MOLECULAR_WEIGHT>
464.592

> <PUBCHEM_OPENEYE_CAN_SMILES>
CC1=CC(=NN1)NC2=NC(=NC(=C2)N3CCN(CC3)C)SC4=CC=C(C=C4)NC(=O)C5CC5

> <PUBCHEM_OPENEYE_ISO_SMILES>
CC1=CC(=NN1)NC2=NC(=NC(=C2)N3CCN(CC3)C)SC4=CC=C(C=C4)NC(=O)C5CC5

> <PUBCHEM_CACTVS_TPSA>
127

> <PUBCHEM_MONOISOTOPIC_WEIGHT>
464.211

> <PUBCHEM_TOTAL_CHARGE>
0

> <PUBCHEM_HEAVY_ATOM_COUNT>
33

> <PUBCHEM_ATOM_DEF_STEREO_COUNT>
0

> <PUBCHEM_ATOM_UDEF_STEREO_COUNT>
0

> <PUBCHEM_BOND_DEF_STEREO_COUNT>
0

> <PUBCHEM_BOND_UDEF_STEREO_COUNT>
0

> <PUBCHEM_ISOTOPIC_ATOM_COUNT>
0

> <PUBCHEM_COMPONENT_COUNT>
1

> <PUBCHEM_CACTVS_TAUTO_COUNT>
33

> <PUBCHEM_COORDINATE_TYPE>
1
5
255

> <PUBCHEM_BONDANNOTATIONS>
10  32  8
19  22  8
20  23  8
20  24  8
22  25  8
23  28  8
24  29  8
27  28  8
27  29  8
30  31  8
31  32  8
6  19  8
6  26  8
7  25  8
7  26  8
9  10  8
9  30  8

$$$$
447966
  -OEChem-11021605012D

 33 36  0     0  0  0  0  0  0999 V2000
    5.1622   -2.0360    0.0000 N   0  0  0  0  0  0  0  0  0  0  0  0
    5.6622    2.5029    0.0000 N   0  0  0  0  0  0  0  0  0  0  0  0
    6.1622   -2.0360    0.0000 N   0  0  0  0  0  0  0  0  0  0  0  0
    3.6942    0.2023    0.0000 N   0  0  0  0  0  0  0  0  0  0  0  0
    5.6622    0.5029    0.0000 C   0  0  0  0  0  0  0  0  0  0  0  0
    5.6622   -0.4971    0.0000 C   0  0  0  0  0  0  0  0  0  0  0  0
    6.5282    1.0029    0.0000 C   0  0  0  0  0  0  0  0  0  0  0  0
    4.8532   -1.0849    0.0000 C   0  0  0  0  0  0  0  0  0  0  0  0
    6.5282    2.0029    0.0000 C   0  0  0  0  0  0  0  0  0  0  0  0
    4.7962    1.0029    0.0000 C   0  0  0  0  0  0  0  0  0  0  0  0
    6.4712   -1.0849    0.0000 C   0  0  0  0  0  0  0  0  0  0  0  0
    3.9021   -0.7759    0.0000 C   0  0  0  0  0  0  0  0  0  0  0  0
    7.4222    0.4682    0.0000 C   0  0  0  0  0  0  0  0  0  0  0  0
    7.4222    2.5376    0.0000 C   0  0  0  0  0  0  0  0  0  0  0  0
    4.7962    2.0029    0.0000 C   0  0  0  0  0  0  0  0  0  0  0  0
    8.3282    0.9821    0.0000 C   0  0  0  0  0  0  0  0  0  0  0  0
    8.3282    2.0237    0.0000 C   0  0  0  0  0  0  0  0  0  0  0  0
    3.1590   -1.4450    0.0000 C   0  0  0  0  0  0  0  0  0  0  0  0
    2.2079   -1.1360    0.0000 C   0  0  0  0  0  0  0  0  0  0  0  0
    2.7431    0.5113    0.0000 C   0  0  0  0  0  0  0  0  0  0  0  0
    2.0000   -0.1578    0.0000 C   0  0  0  0  0  0  0  0  0  0  0  0
    4.2592    0.6929    0.0000 H   0  0  0  0  0  0  0  0  0  0  0  0
    7.0609   -0.8933    0.0000 H   0  0  0  0  0  0  0  0  0  0  0  0
    7.4150   -0.1517    0.0000 H   0  0  0  0  0  0  0  0  0  0  0  0
    4.7978   -2.5376    0.0000 H   0  0  0  0  0  0  0  0  0  0  0  0
    7.4150    3.1575    0.0000 H   0  0  0  0  0  0  0  0  0  0  0  0
    4.2592    2.3129    0.0000 H   0  0  0  0  0  0  0  0  0  0  0  0
    8.8640    0.6700    0.0000 H   0  0  0  0  0  0  0  0  0  0  0  0
    8.8640    2.3358    0.0000 H   0  0  0  0  0  0  0  0  0  0  0  0
    3.2879   -2.0515    0.0000 H   0  0  0  0  0  0  0  0  0  0  0  0
    1.7472   -1.5509    0.0000 H   0  0  0  0  0  0  0  0  0  0  0  0
    2.6142    1.1177    0.0000 H   0  0  0  0  0  0  0  0  0  0  0  0
    1.4103    0.0337    0.0000 H   0  0  0  0  0  0  0  0  0  0  0  0
  1  3  1  0  0  0  0
  1  8  1  0  0  0  0
  1 25  1  0  0  0  0
  2  9  1  0  0  0  0
  2 15  2  0  0  0  0
  3 11  2  0  0  0  0
  4 12  1  0  0  0  0
  4 20  2  0  0  0  0
  5  6  1  0  0  0  0
  5  7  1  0  0  0  0
  5 10  2  0  0  0  0
  6  8  2  0  0  0  0
  6 11  1  0  0  0  0
  7  9  1  0  0  0  0
  7 13  2  0  0  0  0
  8 12  1  0  0  0  0
  9 14  2  0  0  0  0
 10 15  1  0  0  0  0
 10 22  1  0  0  0  0
 11 23  1  0  0  0  0
 12 18  2  0  0  0  0
 13 16  1  0  0  0  0
 13 24  1  0  0  0  0
 14 17  1  0  0  0  0
 14 26  1  0  0  0  0
 15 27  1  0  0  0  0
 16 17  2  0  0  0  0
 16 28  1  0  0  0  0
 17 29  1  0  0  0  0
 18 19  1  0  0  0  0
 18 30  1  0  0  0  0
 19 21  2  0  0  0  0
 19 31  1  0  0  0  0
 20 21  1  0  0  0  0
 20 32  1  0  0  0  0
 21 33  1  0  0  0  0
M  END
> <PUBCHEM_COMPOUND_CID>
447966

> <PUBCHEM_COMPOUND_CANONICALIZED>
1

> <PUBCHEM_CACTVS_COMPLEXITY>
348

> <PUBCHEM_CACTVS_HBOND_ACCEPTOR>
3

> <PUBCHEM_CACTVS_HBOND_DONOR>
1

> <PUBCHEM_CACTVS_ROTATABLE_BOND>
2

> <PUBCHEM_CACTVS_SUBSKEYS>
AAADccB7gAAAAAAAAAAAAAAAAAAAAWAAAAA8WIAAAAAAAACx/gAAHAAYAAAADAjBHgQ8wPJrEACiAzRnRACShCAxgiAY+SA4ZJgIYOLA0dGUpAhgiADIyAcQgMAOgAAAAAACAAAAAAAAAAQAAAAAAAAAAA==

> <PUBCHEM_IUPAC_OPENEYE_NAME>
4-[5-(2-pyridyl)-1H-pyrazol-4-yl]quinoline

> <PUBCHEM_IUPAC_CAS_NAME>
4-[5-(2-pyridinyl)-1H-pyrazol-4-yl]quinoline

> <PUBCHEM_IUPAC_NAME>
4-(5-pyridin-2-yl-1H-pyrazol-4-yl)quinoline

> <PUBCHEM_IUPAC_SYSTEMATIC_NAME>
4-(5-pyridin-2-yl-1H-pyrazol-4-yl)quinoline

> <PUBCHEM_IUPAC_TRADITIONAL_NAME>
4-[5-(2-pyridyl)-1H-pyrazol-4-yl]quinoline

> <PUBCHEM_IUPAC_INCHI>
InChI=1S/C17H12N4/c1-2-6-15-13(5-1)12(8-10-19-15)14-11-20-21-17(14)16-7-3-4-9-18-16/h1-11H,(H,20,21)

> <PUBCHEM_IUPAC_INCHIKEY>
IBCXZJCWDGCXQT-UHFFFAOYSA-N

> <PUBCHEM_XLOGP3_AA>
2.7

> <PUBCHEM_EXACT_MASS>
272.106

> <PUBCHEM_MOLECULAR_FORMULA>
C17H12N4

> <PUBCHEM_MOLECULAR_WEIGHT>
272.311

> <PUBCHEM_OPENEYE_CAN_SMILES>
C1=CC=C2C(=C1)C(=CC=N2)C3=C(NN=C3)C4=CC=CC=N4

> <PUBCHEM_OPENEYE_ISO_SMILES>
C1=CC=C2C(=C1)C(=CC=N2)C3=C(NN=C3)C4=CC=CC=N4

> <PUBCHEM_CACTVS_TPSA>
54.5

> <PUBCHEM_MONOISOTOPIC_WEIGHT>
272.106

> <PUBCHEM_TOTAL_CHARGE>
0

> <PUBCHEM_HEAVY_ATOM_COUNT>
21

> <PUBCHEM_ATOM_DEF_STEREO_COUNT>
0

> <PUBCHEM_ATOM_UDEF_STEREO_COUNT>
0

> <PUBCHEM_BOND_DEF_STEREO_COUNT>
0

> <PUBCHEM_BOND_UDEF_STEREO_COUNT>
0

> <PUBCHEM_ISOTOPIC_ATOM_COUNT>
0

> <PUBCHEM_COMPONENT_COUNT>
1

> <PUBCHEM_CACTVS_TAUTO_COUNT>
5

> <PUBCHEM_COORDINATE_TYPE>
1
5
255

> <PUBCHEM_BONDANNOTATIONS>
1  3  8
1  8  8
10  15  8
12  18  8
13  16  8
14  17  8
16  17  8
18  19  8
19  21  8
2  15  8
2  9  8
20  21  8
3  11  8
4  12  8
4  20  8
5  10  8
5  7  8
6  11  8
6  8  8
7  13  8
7  9  8
9  14  8

$$$$
16047143
  -OEChem-11021605012D

 47 49  0     0  0  0  0  0  0999 V2000
    3.4030    3.7500    0.0000 S   0  0  0  0  0  0  0  0  0  0  0  0
    2.9030    2.8840    0.0000 O   0  0  0  0  0  0  0  0  0  0  0  0
    3.9030    4.6160    0.0000 O   0  0  0  0  0  0  0  0  0  0  0  0
    9.4651    3.2500    0.0000 O   0  0  0  0  0  0  0  0  0  0  0  0
    6.8671   -4.2500    0.0000 O   0  0  0  0  0  0  0  0  0  0  0  0
    7.7331    3.2500    0.0000 N   0  0  0  0  0  0  0  0  0  0  0  0
    2.5369    4.2500    0.0000 N   0  0  0  0  0  0  0  0  0  0  0  0
   10.3312    1.7500    0.0000 N   0  0  0  0  0  0  0  0  0  0  0  0
    8.5991   -4.2500    0.0000 N   0  0  0  0  0  0  0  0  0  0  0  0
    6.8671    1.7500    0.0000 C   0  0  0  0  0  0  0  0  0  0  0  0
    7.7331    0.2500    0.0000 C   0  0  0  0  0  0  0  0  0  0  0  0
    6.0010    2.2500    0.0000 C   0  0  0  0  0  0  0  0  0  0  0  0
    7.7331    2.2500    0.0000 C   0  0  0  0  0  0  0  0  0  0  0  0
    6.8671    0.7500    0.0000 C   0  0  0  0  0  0  0  0  0  0  0  0
    8.5991    1.7500    0.0000 C   0  0  0  0  0  0  0  0  0  0  0  0
    8.5991    0.7500    0.0000 C   0  0  0  0  0  0  0  0  0  0  0  0
    7.7331   -0.7500    0.0000 C   0  0  0  0  0  0  0  0  0  0  0  0
    6.0010    3.2500    0.0000 C   0  0  0  0  0  0  0  0  0  0  0  0
    5.1350    1.7500    0.0000 C   0  0  0  0  0  0  0  0  0  0  0  0
    4.2690    3.2500    0.0000 C   0  0  0  0  0  0  0  0  0  0  0  0
    5.1350    3.7500    0.0000 C   0  0  0  0  0  0  0  0  0  0  0  0
    4.2690    2.2500    0.0000 C   0  0  0  0  0  0  0  0  0  0  0  0
    6.8671   -1.2500    0.0000 C   0  0  0  0  0  0  0  0  0  0  0  0
    8.5991   -1.2500    0.0000 C   0  0  0  0  0  0  0  0  0  0  0  0
    9.4651    2.2500    0.0000 C   0  0  0  0  0  0  0  0  0  0  0  0
    6.8671   -2.2500    0.0000 C   0  0  0  0  0  0  0  0  0  0  0  0
    8.5991   -2.2500    0.0000 C   0  0  0  0  0  0  0  0  0  0  0  0
    7.7331   -2.7500    0.0000 C   0  0  0  0  0  0  0  0  0  0  0  0
    7.7331   -3.7500    0.0000 C   0  0  0  0  0  0  0  0  0  0  0  0
    6.3301    0.4400    0.0000 H   0  0  0  0  0  0  0  0  0  0  0  0
    9.1360    0.4400    0.0000 H   0  0  0  0  0  0  0  0  0  0  0  0
    6.5380    3.5600    0.0000 H   0  0  0  0  0  0  0  0  0  0  0  0
    5.1350    1.1300    0.0000 H   0  0  0  0  0  0  0  0  0  0  0  0
    5.1350    4.3700    0.0000 H   0  0  0  0  0  0  0  0  0  0  0  0
    3.7320    1.9400    0.0000 H   0  0  0  0  0  0  0  0  0  0  0  0
    6.3301   -0.9400    0.0000 H   0  0  0  0  0  0  0  0  0  0  0  0
    9.1360   -0.9400    0.0000 H   0  0  0  0  0  0  0  0  0  0  0  0
    8.2700    3.5600    0.0000 H   0  0  0  0  0  0  0  0  0  0  0  0
    7.1962    3.5600    0.0000 H   0  0  0  0  0  0  0  0  0  0  0  0
    6.3301   -2.5600    0.0000 H   0  0  0  0  0  0  0  0  0  0  0  0
    9.1360   -2.5600    0.0000 H   0  0  0  0  0  0  0  0  0  0  0  0
    2.0000    3.9400    0.0000 H   0  0  0  0  0  0  0  0  0  0  0  0
    2.5369    4.8700    0.0000 H   0  0  0  0  0  0  0  0  0  0  0  0
   10.8681    2.0600    0.0000 H   0  0  0  0  0  0  0  0  0  0  0  0
   10.3312    1.1300    0.0000 H   0  0  0  0  0  0  0  0  0  0  0  0
    8.5991   -4.8700    0.0000 H   0  0  0  0  0  0  0  0  0  0  0  0
    9.1360   -3.9400    0.0000 H   0  0  0  0  0  0  0  0  0  0  0  0
  1  2  2  0  0  0  0
  1  3  2  0  0  0  0
  1  7  1  0  0  0  0
  1 20  1  0  0  0  0
  4 25  2  0  0  0  0
  5 29  2  0  0  0  0
  6 13  1  0  0  0  0
  6 38  1  0  0  0  0
  6 39  1  0  0  0  0
  7 42  1  0  0  0  0
  7 43  1  0  0  0  0
  8 25  1  0  0  0  0
  8 44  1  0  0  0  0
  8 45  1  0  0  0  0
  9 29  1  0  0  0  0
  9 46  1  0  0  0  0
  9 47  1  0  0  0  0
 10 12  1  0  0  0  0
 10 13  2  0  0  0  0
 10 14  1  0  0  0  0
 11 14  2  0  0  0  0
 11 16  1  0  0  0  0
 11 17  1  0  0  0  0
 12 18  2  0  0  0  0
 12 19  1  0  0  0  0
 13 15  1  0  0  0  0
 14 30  1  0  0  0  0
 15 16  2  0  0  0  0
 15 25  1  0  0  0  0
 16 31  1  0  0  0  0
 17 23  2  0  0  0  0
 17 24  1  0  0  0  0
 18 21  1  0  0  0  0
 18 32  1  0  0  0  0
 19 22  2  0  0  0  0
 19 33  1  0  0  0  0
 20 21  2  0  0  0  0
 20 22  1  0  0  0  0
 21 34  1  0  0  0  0
 22 35  1  0  0  0  0
 23 26  1  0  0  0  0
 23 36  1  0  0  0  0
 24 27  2  0  0  0  0
 24 37  1  0  0  0  0
 26 28  2  0  0  0  0
 26 40  1  0  0  0  0
 27 28  1  0  0  0  0
 27 41  1  0  0  0  0
 28 29  1  0  0  0  0
M  END
> <PUBCHEM_COMPOUND_CID>
16047143

> <PUBCHEM_COMPOUND_CANONICALIZED>
1

> <PUBCHEM_CACTVS_COMPLEXITY>
707

> <PUBCHEM_CACTVS_HBOND_ACCEPTOR>
6

> <PUBCHEM_CACTVS_HBOND_DONOR>
4

> <PUBCHEM_CACTVS_ROTATABLE_BOND>
5

> <PUBCHEM_CACTVS_SUBSKEYS>
AAADceB7uABAAAAAAAAAAAAAAAAAAAAAAAAwYMAAAAAAAAABUAAAHgQQQAAADAiB2AAwwYBAAAKIAiVSUHDCABAkAAAIiBkARMgIIDqA1ZGAIYBggAAIyccYiMCO2AACAAACAACwAAQAAAQAAAAAAAAAAA==

> <PUBCHEM_IUPAC_OPENEYE_NAME>
2-amino-5-(4-carbamoylphenyl)-3-(4-sulfamoylphenyl)benzamide

> <PUBCHEM_IUPAC_CAS_NAME>
2-amino-5-(4-carbamoylphenyl)-3-(4-sulfamoylphenyl)benzamide

> <PUBCHEM_IUPAC_NAME>
2-amino-5-(4-carbamoylphenyl)-3-(4-sulfamoylphenyl)benzamide

> <PUBCHEM_IUPAC_SYSTEMATIC_NAME>
5-(4-aminocarbonylphenyl)-2-azanyl-3-(4-sulfamoylphenyl)benzamide

> <PUBCHEM_IUPAC_TRADITIONAL_NAME>
2-amino-5-(4-carbamoylphenyl)-3-(4-sulfamoylphenyl)benzamide

> <PUBCHEM_IUPAC_INCHI>
InChI=1S/C20H18N4O4S/c21-18-16(12-5-7-15(8-6-12)29(24,27)28)9-14(10-17(18)20(23)26)11-1-3-13(4-2-11)19(22)25/h1-10H,21H2,(H2,22,25)(H2,23,26)(H2,24,27,28)

> <PUBCHEM_IUPAC_INCHIKEY>
QMTVJEFAHHTNDS-UHFFFAOYSA-N

> <PUBCHEM_XLOGP3_AA>
1.4

> <PUBCHEM_EXACT_MASS>
410.105

> <PUBCHEM_MOLECULAR_FORMULA>
C20H18N4O4S

> <PUBCHEM_MOLECULAR_WEIGHT>
410.448

> <PUBCHEM_OPENEYE_CAN_SMILES>
C1=CC(=CC=C1C2=CC(=C(C(=C2)C(=O)N)N)C3=CC=C(C=C3)S(=O)(=O)N)C(=O)N

> <PUBCHEM_OPENEYE_ISO_SMILES>
C1=CC(=CC=C1C2=CC(=C(C(=C2)C(=O)N)N)C3=CC=C(C=C3)S(=O)(=O)N)C(=O)N

> <PUBCHEM_CACTVS_TPSA>
181

> <PUBCHEM_MONOISOTOPIC_WEIGHT>
410.105

> <PUBCHEM_TOTAL_CHARGE>
0

> <PUBCHEM_HEAVY_ATOM_COUNT>
29

> <PUBCHEM_ATOM_DEF_STEREO_COUNT>
0

> <PUBCHEM_ATOM_UDEF_STEREO_COUNT>
0

> <PUBCHEM_BOND_DEF_STEREO_COUNT>
0

> <PUBCHEM_BOND_UDEF_STEREO_COUNT>
0

> <PUBCHEM_ISOTOPIC_ATOM_COUNT>
0

> <PUBCHEM_COMPONENT_COUNT>
1

> <PUBCHEM_CACTVS_TAUTO_COUNT>
24

> <PUBCHEM_COORDINATE_TYPE>
1
5
255

> <PUBCHEM_BONDANNOTATIONS>
10  13  8
10  14  8
11  14  8
11  16  8
12  18  8
12  19  8
13  15  8
15  16  8
17  23  8
17  24  8
18  21  8
19  22  8
20  21  8
20  22  8
23  26  8
24  27  8
26  28  8
27  28  8

$$$$
18792927
  -OEChem-11021605012D

 42 45  0     0  0  0  0  0  0999 V2000
    3.9639    3.9253    0.0000 O   0  0  0  0  0  0  0  0  0  0  0  0
    4.6783   -1.0738    0.0000 N   0  0  0  0  0  0  0  0  0  0  0  0
    5.6103   -3.9253    0.0000 N   0  0  0  0  0  0  0  0  0  0  0  0
    2.8660   -1.2690    0.0000 N   0  0  0  0  0  0  0  0  0  0  0  0
    2.0000    0.2310    0.0000 N   0  0  0  0  0  0  0  0  0  0  0  0
    2.8660    1.7310    0.0000 N   0  0  0  0  0  0  0  0  0  0  0  0
    4.9889   -2.0243    0.0000 C   0  0  0  0  0  0  0  0  0  0  0  0
    5.9674   -2.2305    0.0000 C   0  0  0  0  0  0  0  0  0  0  0  0
    4.3211   -2.7686    0.0000 C   0  0  0  0  0  0  0  0  0  0  0  0
    6.2781   -3.1810    0.0000 C   0  0  0  0  0  0  0  0  0  0  0  0
    4.6318   -3.7191    0.0000 C   0  0  0  0  0  0  0  0  0  0  0  0
    3.7320   -0.7690    0.0000 C   0  0  0  0  0  0  0  0  0  0  0  0
    5.2619   -0.2690    0.0000 C   0  0  0  0  0  0  0  0  0  0  0  0
    3.7320    0.2310    0.0000 C   0  0  0  0  0  0  0  0  0  0  0  0
    4.6783    0.5357    0.0000 C   0  0  0  0  0  0  0  0  0  0  0  0
    4.9889    1.4862    0.0000 C   0  0  0  0  0  0  0  0  0  0  0  0
    2.8660    0.7310    0.0000 C   0  0  0  0  0  0  0  0  0  0  0  0
    2.0000   -0.7690    0.0000 C   0  0  0  0  0  0  0  0  0  0  0  0
    4.3211    2.2305    0.0000 C   0  0  0  0  0  0  0  0  0  0  0  0
    5.9674    1.6924    0.0000 C   0  0  0  0  0  0  0  0  0  0  0  0
    4.6318    3.1810    0.0000 C   0  0  0  0  0  0  0  0  0  0  0  0
    6.2781    2.6430    0.0000 C   0  0  0  0  0  0  0  0  0  0  0  0
    5.6103    3.3872    0.0000 C   0  0  0  0  0  0  0  0  0  0  0  0
    5.4030   -1.5628    0.0000 H   0  0  0  0  0  0  0  0  0  0  0  0
    6.5812   -2.1432    0.0000 H   0  0  0  0  0  0  0  0  0  0  0  0
    5.9880   -1.6108    0.0000 H   0  0  0  0  0  0  0  0  0  0  0  0
    3.9385   -2.2807    0.0000 H   0  0  0  0  0  0  0  0  0  0  0  0
    3.7742   -3.0606    0.0000 H   0  0  0  0  0  0  0  0  0  0  0  0
    6.6607   -3.6689    0.0000 H   0  0  0  0  0  0  0  0  0  0  0  0
    6.8250   -2.8890    0.0000 H   0  0  0  0  0  0  0  0  0  0  0  0
    4.0179   -3.8065    0.0000 H   0  0  0  0  0  0  0  0  0  0  0  0
    4.6112   -4.3388    0.0000 H   0  0  0  0  0  0  0  0  0  0  0  0
    5.8029   -4.5147    0.0000 H   0  0  0  0  0  0  0  0  0  0  0  0
    5.8819   -0.2690    0.0000 H   0  0  0  0  0  0  0  0  0  0  0  0
    1.4631   -1.0790    0.0000 H   0  0  0  0  0  0  0  0  0  0  0  0
    3.7144    2.1027    0.0000 H   0  0  0  0  0  0  0  0  0  0  0  0
    6.3815    1.2310    0.0000 H   0  0  0  0  0  0  0  0  0  0  0  0
    2.3291    2.0410    0.0000 H   0  0  0  0  0  0  0  0  0  0  0  0
    3.4030    2.0410    0.0000 H   0  0  0  0  0  0  0  0  0  0  0  0
    6.8848    2.7708    0.0000 H   0  0  0  0  0  0  0  0  0  0  0  0
    5.8029    3.9766    0.0000 H   0  0  0  0  0  0  0  0  0  0  0  0
    4.1565    4.5147    0.0000 H   0  0  0  0  0  0  0  0  0  0  0  0
  1 21  1  0  0  0  0
  1 42  1  0  0  0  0
  2  7  1  0  0  0  0
  2 12  1  0  0  0  0
  2 13  1  0  0  0  0
  3 10  1  0  0  0  0
  3 11  1  0  0  0  0
  3 33  1  0  0  0  0
  4 12  2  0  0  0  0
  4 18  1  0  0  0  0
  5 17  1  0  0  0  0
  5 18  2  0  0  0  0
  6 17  1  0  0  0  0
  6 38  1  0  0  0  0
  6 39  1  0  0  0  0
  7  8  1  0  0  0  0
  7  9  1  0  0  0  0
  7 24  1  0  0  0  0
  8 10  1  0  0  0  0
  8 25  1  0  0  0  0
  8 26  1  0  0  0  0
  9 11  1  0  0  0  0
  9 27  1  0  0  0  0
  9 28  1  0  0  0  0
 10 29  1  0  0  0  0
 10 30  1  0  0  0  0
 11 31  1  0  0  0  0
 11 32  1  0  0  0  0
 12 14  1  0  0  0  0
 13 15  2  0  0  0  0
 13 34  1  0  0  0  0
 14 15  1  0  0  0  0
 14 17  2  0  0  0  0
 15 16  1  0  0  0  0
 16 19  2  0  0  0  0
 16 20  1  0  0  0  0
 18 35  1  0  0  0  0
 19 21  1  0  0  0  0
 19 36  1  0  0  0  0
 20 22  2  0  0  0  0
 20 37  1  0  0  0  0
 21 23  2  0  0  0  0
 22 23  1  0  0  0  0
 22 40  1  0  0  0  0
 23 41  1  0  0  0  0
M  END
> <PUBCHEM_COMPOUND_CID>
18792927

> <PUBCHEM_COMPOUND_CANONICALIZED>
1

> <PUBCHEM_CACTVS_COMPLEXITY>
402

> <PUBCHEM_CACTVS_HBOND_ACCEPTOR>
5

> <PUBCHEM_CACTVS_HBOND_DONOR>
3

> <PUBCHEM_CACTVS_ROTATABLE_BOND>
2

> <PUBCHEM_CACTVS_SUBSKEYS>
AAADceB7oAAAAAAAAAAAAAAAAAAAAWAAAAA8WIAAAAAAAFgB/AAAHgAQCAAADCzBmwQ9tt/MEgCgAjJnZACCgCkxIKAJ2KAuTJiILmLC2dOEdAhs0BPI2CeQ0PIOgAABAAAAAAAAAAIAAAAAAAAAAAAAAA==

> <PUBCHEM_IUPAC_OPENEYE_NAME>
3-[4-amino-7-(4-piperidyl)pyrrolo[2,3-d]pyrimidin-5-yl]phenol

> <PUBCHEM_IUPAC_CAS_NAME>
3-[4-amino-7-(4-piperidinyl)-5-pyrrolo[2,3-d]pyrimidinyl]phenol

> <PUBCHEM_IUPAC_NAME>
3-(4-amino-7-piperidin-4-ylpyrrolo[2,3-d]pyrimidin-5-yl)phenol

> <PUBCHEM_IUPAC_SYSTEMATIC_NAME>
3-(4-azanyl-7-piperidin-4-yl-pyrrolo[2,3-d]pyrimidin-5-yl)phenol

> <PUBCHEM_IUPAC_TRADITIONAL_NAME>
3-[4-amino-7-(4-piperidyl)pyrrolo[2,3-d]pyrimidin-5-yl]phenol

> <PUBCHEM_IUPAC_INCHI>
InChI=1S/C17H19N5O/c18-16-15-14(11-2-1-3-13(23)8-11)9-22(17(15)21-10-20-16)12-4-6-19-7-5-12/h1-3,8-10,12,19,23H,4-7H2,(H2,18,20,21)

> <PUBCHEM_IUPAC_INCHIKEY>
CIGMIXWAESLRNR-UHFFFAOYSA-N

> <PUBCHEM_XLOGP3_AA>
1.6

> <PUBCHEM_EXACT_MASS>
309.159

> <PUBCHEM_MOLECULAR_FORMULA>
C17H19N5O

> <PUBCHEM_MOLECULAR_WEIGHT>
309.373

> <PUBCHEM_OPENEYE_CAN_SMILES>
C1CNCCC1N2C=C(C3=C2N=CN=C3N)C4=CC(=CC=C4)O

> <PUBCHEM_OPENEYE_ISO_SMILES>
C1CNCCC1N2C=C(C3=C2N=CN=C3N)C4=CC(=CC=C4)O

> <PUBCHEM_CACTVS_TPSA>
89

> <PUBCHEM_MONOISOTOPIC_WEIGHT>
309.159

> <PUBCHEM_TOTAL_CHARGE>
0

> <PUBCHEM_HEAVY_ATOM_COUNT>
23

> <PUBCHEM_ATOM_DEF_STEREO_COUNT>
0

> <PUBCHEM_ATOM_UDEF_STEREO_COUNT>
0

> <PUBCHEM_BOND_DEF_STEREO_COUNT>
0

> <PUBCHEM_BOND_UDEF_STEREO_COUNT>
0

> <PUBCHEM_ISOTOPIC_ATOM_COUNT>
0

> <PUBCHEM_COMPONENT_COUNT>
1

> <PUBCHEM_CACTVS_TAUTO_COUNT>
12

> <PUBCHEM_COORDINATE_TYPE>
1
5
255

> <PUBCHEM_BONDANNOTATIONS>
12  14  8
13  15  8
14  15  8
14  17  8
16  19  8
16  20  8
19  21  8
2  12  8
2  13  8
20  22  8
21  23  8
22  23  8
4  12  8
4  18  8
5  17  8
5  18  8

$$$$
44588117
  -OEChem-11021605012D

 39 42  0     0  0  0  0  0  0999 V2000
   10.9654   -0.4923    0.0000 O   0  0  0  0  0  0  0  0  0  0  0  0
    9.0084   -2.5142    0.0000 N   0  0  0  0  0  0  0  0  0  0  0  0
    9.3191    0.0458    0.0000 N   0  0  0  0  0  0  0  0  0  0  0  0
    7.1962   -2.7095    0.0000 N   0  0  0  0  0  0  0  0  0  0  0  0
   10.2510    2.8973    0.0000 N   0  0  0  0  0  0  0  0  0  0  0  0
    2.0000    1.2905    0.0000 N   0  0  0  0  0  0  0  0  0  0  0  0
    8.0622   -1.2095    0.0000 C   0  0  0  0  0  0  0  0  0  0  0  0
    9.0084   -0.9048    0.0000 C   0  0  0  0  0  0  0  0  0  0  0  0
    8.0622   -2.2095    0.0000 C   0  0  0  0  0  0  0  0  0  0  0  0
    7.1962   -0.7095    0.0000 C   0  0  0  0  0  0  0  0  0  0  0  0
    6.3301   -1.2095    0.0000 C   0  0  0  0  0  0  0  0  0  0  0  0
    9.5920   -1.7095    0.0000 C   0  0  0  0  0  0  0  0  0  0  0  0
    5.4641   -0.7095    0.0000 C   0  0  0  0  0  0  0  0  0  0  0  0
    6.3301   -2.2095    0.0000 C   0  0  0  0  0  0  0  0  0  0  0  0
    5.4641    0.2905    0.0000 C   0  0  0  0  0  0  0  0  0  0  0  0
    4.5981   -1.2095    0.0000 C   0  0  0  0  0  0  0  0  0  0  0  0
   10.2976    0.2520    0.0000 C   0  0  0  0  0  0  0  0  0  0  0  0
   10.6082    1.2025    0.0000 C   0  0  0  0  0  0  0  0  0  0  0  0
    4.5981    0.7905    0.0000 C   0  0  0  0  0  0  0  0  0  0  0  0
    3.7320   -0.7095    0.0000 C   0  0  0  0  0  0  0  0  0  0  0  0
    3.7320    0.2905    0.0000 C   0  0  0  0  0  0  0  0  0  0  0  0
   11.5867    1.4087    0.0000 C   0  0  0  0  0  0  0  0  0  0  0  0
    9.9404    1.9468    0.0000 C   0  0  0  0  0  0  0  0  0  0  0  0
   11.8974    2.3592    0.0000 C   0  0  0  0  0  0  0  0  0  0  0  0
   11.2296    3.1035    0.0000 C   0  0  0  0  0  0  0  0  0  0  0  0
    2.8660    0.7905    0.0000 C   0  0  0  0  0  0  0  0  0  0  0  0
    7.1962   -0.0895    0.0000 H   0  0  0  0  0  0  0  0  0  0  0  0
   10.2120   -1.7095    0.0000 H   0  0  0  0  0  0  0  0  0  0  0  0
    9.2010   -3.1035    0.0000 H   0  0  0  0  0  0  0  0  0  0  0  0
    5.7932   -2.5195    0.0000 H   0  0  0  0  0  0  0  0  0  0  0  0
    8.9050    0.5072    0.0000 H   0  0  0  0  0  0  0  0  0  0  0  0
    6.0010    0.6005    0.0000 H   0  0  0  0  0  0  0  0  0  0  0  0
    4.5981   -1.8295    0.0000 H   0  0  0  0  0  0  0  0  0  0  0  0
    4.5981    1.4105    0.0000 H   0  0  0  0  0  0  0  0  0  0  0  0
    3.1951   -1.0195    0.0000 H   0  0  0  0  0  0  0  0  0  0  0  0
   12.0008    0.9473    0.0000 H   0  0  0  0  0  0  0  0  0  0  0  0
    9.3337    1.8190    0.0000 H   0  0  0  0  0  0  0  0  0  0  0  0
   12.5041    2.4871    0.0000 H   0  0  0  0  0  0  0  0  0  0  0  0
   11.4222    3.6929    0.0000 H   0  0  0  0  0  0  0  0  0  0  0  0
  1 17  2  0  0  0  0
  2  9  1  0  0  0  0
  2 12  1  0  0  0  0
  2 29  1  0  0  0  0
  3  8  1  0  0  0  0
  3 17  1  0  0  0  0
  3 31  1  0  0  0  0
  4  9  1  0  0  0  0
  4 14  2  0  0  0  0
  5 23  1  0  0  0  0
  5 25  2  0  0  0  0
  6 26  3  0  0  0  0
  7  8  1  0  0  0  0
  7  9  2  0  0  0  0
  7 10  1  0  0  0  0
  8 12  2  0  0  0  0
 10 11  2  0  0  0  0
 10 27  1  0  0  0  0
 11 13  1  0  0  0  0
 11 14  1  0  0  0  0
 12 28  1  0  0  0  0
 13 15  2  0  0  0  0
 13 16  1  0  0  0  0
 14 30  1  0  0  0  0
 15 19  1  0  0  0  0
 15 32  1  0  0  0  0
 16 20  2  0  0  0  0
 16 33  1  0  0  0  0
 17 18  1  0  0  0  0
 18 22  1  0  0  0  0
 18 23  2  0  0  0  0
 19 21  2  0  0  0  0
 19 34  1  0  0  0  0
 20 21  1  0  0  0  0
 20 35  1  0  0  0  0
 21 26  1  0  0  0  0
 22 24  2  0  0  0  0
 22 36  1  0  0  0  0
 23 37  1  0  0  0  0
 24 25  1  0  0  0  0
 24 38  1  0  0  0  0
 25 39  1  0  0  0  0
M  END
> <PUBCHEM_COMPOUND_CID>
44588117

> <PUBCHEM_COMPOUND_CANONICALIZED>
1

> <PUBCHEM_CACTVS_COMPLEXITY>
550

> <PUBCHEM_CACTVS_HBOND_ACCEPTOR>
4

> <PUBCHEM_CACTVS_HBOND_DONOR>
2

> <PUBCHEM_CACTVS_ROTATABLE_BOND>
3

> <PUBCHEM_CACTVS_SUBSKEYS>
AAADccB7oAAAAAAAAAAAAAAAAAAAAWAAAAA8WIAAAAAAAFgB/gAAHgAQAAAADAjBmwQ98N7JkAC4Bjd3dACigCm1EqAJ2aE4dNiI6PrA3dGUJYholALIye8YgcAOwAAAAAAAAACAAAAAAAAAAAAAAAAAAA==

> <PUBCHEM_IUPAC_OPENEYE_NAME>
N-[5-(4-cyanophenyl)-1H-pyrrolo[2,3-b]pyridin-3-yl]pyridine-3-carboxamide

> <PUBCHEM_IUPAC_CAS_NAME>
N-[5-(4-cyanophenyl)-1H-pyrrolo[2,3-b]pyridin-3-yl]-3-pyridinecarboxamide

> <PUBCHEM_IUPAC_NAME>
N-[5-(4-cyanophenyl)-1H-pyrrolo[2,3-b]pyridin-3-yl]pyridine-3-carboxamide

> <PUBCHEM_IUPAC_SYSTEMATIC_NAME>
N-[5-(4-cyanophenyl)-1H-pyrrolo[2,3-b]pyridin-3-yl]pyridine-3-carboxamide

> <PUBCHEM_IUPAC_TRADITIONAL_NAME>
N-[5-(4-cyanophenyl)-1H-pyrrolo[2,3-b]pyridin-3-yl]nicotinamide

> <PUBCHEM_IUPAC_INCHI>
InChI=1S/C20H13N5O/c21-9-13-3-5-14(6-4-13)16-8-17-18(12-24-19(17)23-11-16)25-20(26)15-2-1-7-22-10-15/h1-8,10-12H,(H,23,24)(H,25,26)

> <PUBCHEM_IUPAC_INCHIKEY>
JTSLALYXYSRPGW-UHFFFAOYSA-N

> <PUBCHEM_XLOGP3_AA>
2.4

> <PUBCHEM_EXACT_MASS>
339.112

> <PUBCHEM_MOLECULAR_FORMULA>
C20H13N5O

> <PUBCHEM_MOLECULAR_WEIGHT>
339.358

> <PUBCHEM_OPENEYE_CAN_SMILES>
C1=CC(=CN=C1)C(=O)NC2=CNC3=NC=C(C=C23)C4=CC=C(C=C4)C#N

> <PUBCHEM_OPENEYE_ISO_SMILES>
C1=CC(=CN=C1)C(=O)NC2=CNC3=NC=C(C=C23)C4=CC=C(C=C4)C#N

> <PUBCHEM_CACTVS_TPSA>
94.5

> <PUBCHEM_MONOISOTOPIC_WEIGHT>
339.112

> <PUBCHEM_TOTAL_CHARGE>
0

> <PUBCHEM_HEAVY_ATOM_COUNT>
26

> <PUBCHEM_ATOM_DEF_STEREO_COUNT>
0

> <PUBCHEM_ATOM_UDEF_STEREO_COUNT>
0

> <PUBCHEM_BOND_DEF_STEREO_COUNT>
0

> <PUBCHEM_BOND_UDEF_STEREO_COUNT>
0

> <PUBCHEM_ISOTOPIC_ATOM_COUNT>
0

> <PUBCHEM_COMPONENT_COUNT>
1

> <PUBCHEM_CACTVS_TAUTO_COUNT>
4

> <PUBCHEM_COORDINATE_TYPE>
1
5
255

> <PUBCHEM_BONDANNOTATIONS>
10  11  8
11  14  8
13  15  8
13  16  8
15  19  8
16  20  8
18  22  8
18  23  8
19  21  8
2  12  8
2  9  8
20  21  8
22  24  8
24  25  8
4  14  8
4  9  8
5  23  8
5  25  8
7  10  8
7  8  8
7  9  8
8  12  8

$$$$
5908088
  -OEChem-11021605012D

 26 28  0     0  0  0  0  0  0999 V2000
    6.2619   -1.0089    0.0000 O   0  0  0  0  0  0  0  0  0  0  0  0
    4.6783   -1.8136    0.0000 N   0  0  0  0  0  0  0  0  0  0  0  0
    6.3758    1.8654    0.0000 N   0  0  0  0  0  0  0  0  0  0  0  0
    3.7320   -0.5089    0.0000 C   0  0  0  0  0  0  0  0  0  0  0  0
    4.6783   -0.2041    0.0000 C   0  0  0  0  0  0  0  0  0  0  0  0
    3.7320   -1.5089    0.0000 C   0  0  0  0  0  0  0  0  0  0  0  0
    5.2619   -1.0089    0.0000 C   0  0  0  0  0  0  0  0  0  0  0  0
    4.9889    0.7464    0.0000 C   0  0  0  0  0  0  0  0  0  0  0  0
    2.8660   -0.0089    0.0000 C   0  0  0  0  0  0  0  0  0  0  0  0
    5.9674    0.9526    0.0000 C   0  0  0  0  0  0  0  0  0  0  0  0
    2.8660   -2.0089    0.0000 C   0  0  0  0  0  0  0  0  0  0  0  0
    2.0000   -0.5089    0.0000 C   0  0  0  0  0  0  0  0  0  0  0  0
    2.0000   -1.5089    0.0000 C   0  0  0  0  0  0  0  0  0  0  0  0
    6.7094    0.2822    0.0000 C   0  0  0  0  0  0  0  0  0  0  0  0
    7.3701    1.7592    0.0000 C   0  0  0  0  0  0  0  0  0  0  0  0
    7.5763    0.7807    0.0000 C   0  0  0  0  0  0  0  0  0  0  0  0
    4.8709   -2.4029    0.0000 H   0  0  0  0  0  0  0  0  0  0  0  0
    4.5749    1.2079    0.0000 H   0  0  0  0  0  0  0  0  0  0  0  0
    2.8660    0.6111    0.0000 H   0  0  0  0  0  0  0  0  0  0  0  0
    2.8660   -2.6289    0.0000 H   0  0  0  0  0  0  0  0  0  0  0  0
    1.4631   -0.1989    0.0000 H   0  0  0  0  0  0  0  0  0  0  0  0
    1.4631   -1.8189    0.0000 H   0  0  0  0  0  0  0  0  0  0  0  0
    6.0667    2.4029    0.0000 H   0  0  0  0  0  0  0  0  0  0  0  0
    6.6436   -0.3343    0.0000 H   0  0  0  0  0  0  0  0  0  0  0  0
    7.7858    2.2192    0.0000 H   0  0  0  0  0  0  0  0  0  0  0  0
    8.1423    0.5275    0.0000 H   0  0  0  0  0  0  0  0  0  0  0  0
  1  7  2  0  0  0  0
  2  6  1  0  0  0  0
  2  7  1  0  0  0  0
  2 17  1  0  0  0  0
  3 10  1  0  0  0  0
  3 15  1  0  0  0  0
  3 23  1  0  0  0  0
  4  5  1  0  0  0  0
  4  6  1  0  0  0  0
  4  9  2  0  0  0  0
  5  7  1  0  0  0  0
  5  8  2  0  0  0  0
  6 11  2  0  0  0  0
  8 10  1  0  0  0  0
  8 18  1  0  0  0  0
  9 12  1  0  0  0  0
  9 19  1  0  0  0  0
 10 14  2  0  0  0  0
 11 13  1  0  0  0  0
 11 20  1  0  0  0  0
 12 13  2  0  0  0  0
 12 21  1  0  0  0  0
 13 22  1  0  0  0  0
 14 16  1  0  0  0  0
 14 24  1  0  0  0  0
 15 16  2  0  0  0  0
 15 25  1  0  0  0  0
 16 26  1  0  0  0  0
M  END
> <PUBCHEM_COMPOUND_CID>
5908088

> <PUBCHEM_COMPOUND_CANONICALIZED>
1

> <PUBCHEM_CACTVS_COMPLEXITY>
324

> <PUBCHEM_CACTVS_HBOND_ACCEPTOR>
1

> <PUBCHEM_CACTVS_HBOND_DONOR>
2

> <PUBCHEM_CACTVS_ROTATABLE_BOND>
1

> <PUBCHEM_CACTVS_SUBSKEYS>
AAADccBzIAAAAAAAAAAAAAAAAAAAAWLAAAAwAAAAAAAAAFgBwAAAHgAQAAAADAjBngQ8wJLJkACoAzV3VACCgCAxAiAI2aE4ZNgIIPLAlZGEIAhglADIyYcciICOAAAAAAACAAAAAAAAAAQAAAAAAAAAAA==

> <PUBCHEM_IUPAC_OPENEYE_NAME>
(3Z)-3-(1H-pyrrol-2-ylmethylene)indolin-2-one

> <PUBCHEM_IUPAC_CAS_NAME>
(3Z)-3-(1H-pyrrol-2-ylmethylidene)-1H-indol-2-one

> <PUBCHEM_IUPAC_NAME>
(3Z)-3-(1H-pyrrol-2-ylmethylidene)-1H-indol-2-one

> <PUBCHEM_IUPAC_SYSTEMATIC_NAME>
(3Z)-3-(1H-pyrrol-2-ylmethylidene)-1H-indol-2-one

> <PUBCHEM_IUPAC_TRADITIONAL_NAME>
(3Z)-3-(1H-pyrrol-2-ylmethylene)oxindole

> <PUBCHEM_IUPAC_INCHI>
InChI=1S/C13H10N2O/c16-13-11(8-9-4-3-7-14-9)10-5-1-2-6-12(10)15-13/h1-8,14H,(H,15,16)/b11-8-

> <PUBCHEM_IUPAC_INCHIKEY>
SEZFNTZQMWJIAI-FLIBITNWSA-N

> <PUBCHEM_XLOGP3_AA>
1.7

> <PUBCHEM_EXACT_MASS>
210.079

> <PUBCHEM_MOLECULAR_FORMULA>
C13H10N2O

> <PUBCHEM_MOLECULAR_WEIGHT>
210.236

> <PUBCHEM_OPENEYE_CAN_SMILES>
C1=CC=C2C(=C1)C(=CC3=CC=CN3)C(=O)N2

> <PUBCHEM_OPENEYE_ISO_SMILES>
C1=CC=C2C(=C1)/C(=C/C3=CC=CN3)/C(=O)N2

> <PUBCHEM_CACTVS_TPSA>
44.9

> <PUBCHEM_MONOISOTOPIC_WEIGHT>
210.079

> <PUBCHEM_TOTAL_CHARGE>
0

> <PUBCHEM_HEAVY_ATOM_COUNT>
16

> <PUBCHEM_ATOM_DEF_STEREO_COUNT>
0

> <PUBCHEM_ATOM_UDEF_STEREO_COUNT>
0

> <PUBCHEM_BOND_DEF_STEREO_COUNT>
1

> <PUBCHEM_BOND_UDEF_STEREO_COUNT>
0

> <PUBCHEM_ISOTOPIC_ATOM_COUNT>
0

> <PUBCHEM_COMPONENT_COUNT>
1

> <PUBCHEM_CACTVS_TAUTO_COUNT>
7

> <PUBCHEM_COORDINATE_TYPE>
1
5
255

> <PUBCHEM_BONDANNOTATIONS>
10  14  8
11  13  8
12  13  8
14  16  8
15  16  8
3  10  8
3  15  8
4  6  8
4  9  8
6  11  8
9  12  8

$$$$
57394915
  -OEChem-11021605012D

 68 72  0     0  0  0  0  0  0999 V2000
    8.0622    3.5670    0.0000 O   0  0  0  0  0  0  0  0  0  0  0  0
    8.0622   -4.4330    0.0000 O   0  0  0  0  0  0  0  0  0  0  0  0
    9.7942    3.5670    0.0000 N   0  0  0  0  0  0  0  0  0  0  0  0
    3.7320   -3.9330    0.0000 N   0  0  0  0  0  0  0  0  0  0  0  0
    7.1962   -2.9330    0.0000 N   0  0  0  0  0  0  0  0  0  0  0  0
   10.6603    5.0670    0.0000 C   0  0  0  0  0  0  0  0  0  0  0  0
   11.6603    5.0670    0.0000 C   0  0  0  0  0  0  0  0  0  0  0  0
   11.1603    5.9330    0.0000 C   0  0  0  0  0  0  0  0  0  0  0  0
    9.7942    4.5670    0.0000 C   0  0  0  0  0  0  0  0  0  0  0  0
    2.0000   -2.9330    0.0000 C   0  0  0  0  0  0  0  0  0  0  0  0
    2.0000   -3.9330    0.0000 C   0  0  0  0  0  0  0  0  0  0  0  0
    2.8660   -2.4330    0.0000 C   0  0  0  0  0  0  0  0  0  0  0  0
    3.7320   -2.9330    0.0000 C   0  0  0  0  0  0  0  0  0  0  0  0
    2.8660   -4.4330    0.0000 C   0  0  0  0  0  0  0  0  0  0  0  0
    8.9282    3.0670    0.0000 C   0  0  0  0  0  0  0  0  0  0  0  0
    4.5981   -4.4330    0.0000 C   0  0  0  0  0  0  0  0  0  0  0  0
    8.9282    2.0670    0.0000 C   0  0  0  0  0  0  0  0  0  0  0  0
    5.4641   -3.9330    0.0000 C   0  0  0  0  0  0  0  0  0  0  0  0
    4.5981   -5.4330    0.0000 C   0  0  0  0  0  0  0  0  0  0  0  0
    8.0622    1.5670    0.0000 C   0  0  0  0  0  0  0  0  0  0  0  0
    9.7942    1.5670    0.0000 C   0  0  0  0  0  0  0  0  0  0  0  0
    6.3301   -4.4330    0.0000 C   0  0  0  0  0  0  0  0  0  0  0  0
    5.4641   -5.9330    0.0000 C   0  0  0  0  0  0  0  0  0  0  0  0
    8.9282    0.0670    0.0000 C   0  0  0  0  0  0  0  0  0  0  0  0
    8.0622    0.5670    0.0000 C   0  0  0  0  0  0  0  0  0  0  0  0
    9.7942    0.5670    0.0000 C   0  0  0  0  0  0  0  0  0  0  0  0
    6.3301   -5.4330    0.0000 C   0  0  0  0  0  0  0  0  0  0  0  0
    8.9282   -0.9330    0.0000 C   0  0  0  0  0  0  0  0  0  0  0  0
    7.1962   -3.9330    0.0000 C   0  0  0  0  0  0  0  0  0  0  0  0
    9.7942   -1.4330    0.0000 C   0  0  0  0  0  0  0  0  0  0  0  0
    8.0622   -2.4330    0.0000 C   0  0  0  0  0  0  0  0  0  0  0  0
    8.0622   -1.4330    0.0000 C   0  0  0  0  0  0  0  0  0  0  0  0
    9.7942   -2.4330    0.0000 C   0  0  0  0  0  0  0  0  0  0  0  0
    8.9282   -2.9330    0.0000 C   0  0  0  0  0  0  0  0  0  0  0  0
   10.6603   -0.9330    0.0000 C   0  0  0  0  0  0  0  0  0  0  0  0
   10.8207    4.4681    0.0000 H   0  0  0  0  0  0  0  0  0  0  0  0
   11.7679    4.4564    0.0000 H   0  0  0  0  0  0  0  0  0  0  0  0
   12.2429    5.2790    0.0000 H   0  0  0  0  0  0  0  0  0  0  0  0
   11.6352    6.3315    0.0000 H   0  0  0  0  0  0  0  0  0  0  0  0
   10.6853    6.3315    0.0000 H   0  0  0  0  0  0  0  0  0  0  0  0
    9.5822    5.1496    0.0000 H   0  0  0  0  0  0  0  0  0  0  0  0
    9.1836    4.4593    0.0000 H   0  0  0  0  0  0  0  0  0  0  0  0
   10.3312    3.2570    0.0000 H   0  0  0  0  0  0  0  0  0  0  0  0
    1.7880   -2.3504    0.0000 H   0  0  0  0  0  0  0  0  0  0  0  0
    1.3894   -3.0407    0.0000 H   0  0  0  0  0  0  0  0  0  0  0  0
    3.2646   -1.9581    0.0000 H   0  0  0  0  0  0  0  0  0  0  0  0
    2.4675   -1.9581    0.0000 H   0  0  0  0  0  0  0  0  0  0  0  0
    1.3894   -3.8254    0.0000 H   0  0  0  0  0  0  0  0  0  0  0  0
    1.7880   -4.5156    0.0000 H   0  0  0  0  0  0  0  0  0  0  0  0
    4.3426   -3.0407    0.0000 H   0  0  0  0  0  0  0  0  0  0  0  0
    3.9441   -2.3504    0.0000 H   0  0  0  0  0  0  0  0  0  0  0  0
    2.4675   -4.9080    0.0000 H   0  0  0  0  0  0  0  0  0  0  0  0
    3.2646   -4.9080    0.0000 H   0  0  0  0  0  0  0  0  0  0  0  0
    5.4641   -3.3130    0.0000 H   0  0  0  0  0  0  0  0  0  0  0  0
    4.0611   -5.7430    0.0000 H   0  0  0  0  0  0  0  0  0  0  0  0
    7.5252    1.8770    0.0000 H   0  0  0  0  0  0  0  0  0  0  0  0
   10.3312    1.8770    0.0000 H   0  0  0  0  0  0  0  0  0  0  0  0
    5.4641   -6.5530    0.0000 H   0  0  0  0  0  0  0  0  0  0  0  0
    7.5252    0.2570    0.0000 H   0  0  0  0  0  0  0  0  0  0  0  0
   10.3312    0.2570    0.0000 H   0  0  0  0  0  0  0  0  0  0  0  0
    6.8671   -5.7430    0.0000 H   0  0  0  0  0  0  0  0  0  0  0  0
    7.5252   -1.1230    0.0000 H   0  0  0  0  0  0  0  0  0  0  0  0
    6.6592   -2.6230    0.0000 H   0  0  0  0  0  0  0  0  0  0  0  0
   10.3312   -2.7430    0.0000 H   0  0  0  0  0  0  0  0  0  0  0  0
    8.9282   -3.5530    0.0000 H   0  0  0  0  0  0  0  0  0  0  0  0
   10.9703   -1.4700    0.0000 H   0  0  0  0  0  0  0  0  0  0  0  0
   11.1972   -0.6230    0.0000 H   0  0  0  0  0  0  0  0  0  0  0  0
   10.3503   -0.3961    0.0000 H   0  0  0  0  0  0  0  0  0  0  0  0
  1 15  2  0  0  0  0
  2 29  2  0  0  0  0
  3  9  1  0  0  0  0
  3 15  1  0  0  0  0
  3 43  1  0  0  0  0
  4 13  1  0  0  0  0
  4 14  1  0  0  0  0
  4 16  1  0  0  0  0
  5 29  1  0  0  0  0
  5 31  1  0  0  0  0
  5 63  1  0  0  0  0
  6  7  1  0  0  0  0
  6  8  1  0  0  0  0
  6  9  1  0  0  0  0
  6 36  1  0  0  0  0
  7  8  1  0  0  0  0
  7 37  1  0  0  0  0
  7 38  1  0  0  0  0
  8 39  1  0  0  0  0
  8 40  1  0  0  0  0
  9 41  1  0  0  0  0
  9 42  1  0  0  0  0
 10 11  1  0  0  0  0
 10 12  1  0  0  0  0
 10 44  1  0  0  0  0
 10 45  1  0  0  0  0
 11 14  1  0  0  0  0
 11 48  1  0  0  0  0
 11 49  1  0  0  0  0
 12 13  1  0  0  0  0
 12 46  1  0  0  0  0
 12 47  1  0  0  0  0
 13 50  1  0  0  0  0
 13 51  1  0  0  0  0
 14 52  1  0  0  0  0
 14 53  1  0  0  0  0
 15 17  1  0  0  0  0
 16 18  1  0  0  0  0
 16 19  2  0  0  0  0
 17 20  2  0  0  0  0
 17 21  1  0  0  0  0
 18 22  2  0  0  0  0
 18 54  1  0  0  0  0
 19 23  1  0  0  0  0
 19 55  1  0  0  0  0
 20 25  1  0  0  0  0
 20 56  1  0  0  0  0
 21 26  2  0  0  0  0
 21 57  1  0  0  0  0
 22 27  1  0  0  0  0
 22 29  1  0  0  0  0
 23 27  2  0  0  0  0
 23 58  1  0  0  0  0
 24 25  2  0  0  0  0
 24 26  1  0  0  0  0
 24 28  1  0  0  0  0
 25 59  1  0  0  0  0
 26 60  1  0  0  0  0
 27 61  1  0  0  0  0
 28 30  2  0  0  0  0
 28 32  1  0  0  0  0
 30 33  1  0  0  0  0
 30 35  1  0  0  0  0
 31 32  2  0  0  0  0
 31 34  1  0  0  0  0
 32 62  1  0  0  0  0
 33 34  2  0  0  0  0
 33 64  1  0  0  0  0
 34 65  1  0  0  0  0
 35 66  1  0  0  0  0
 35 67  1  0  0  0  0
 35 68  1  0  0  0  0
M  END
> <PUBCHEM_COMPOUND_CID>
57394915

> <PUBCHEM_COMPOUND_CANONICALIZED>
1

> <PUBCHEM_CACTVS_COMPLEXITY>
708

> <PUBCHEM_CACTVS_HBOND_ACCEPTOR>
3

> <PUBCHEM_CACTVS_HBOND_DONOR>
2

> <PUBCHEM_CACTVS_ROTATABLE_BOND>
7

> <PUBCHEM_CACTVS_SUBSKEYS>
AAADcfB7MAAAAAAAAAAAAAAAGAAAAAAAAAA8YMEAAAAAAAABUAAAHgAQAAAADQjBmAQywIPAAACIAiVSUACCAAAlAgAIiIEIZMgIIDLAlZGEIQhglgDIyYcciMCOyAAAQAAQAACQAACAACAAAAAAAAAAAA==

> <PUBCHEM_IUPAC_OPENEYE_NAME>
N-[3-[4-(cyclopropylmethylcarbamoyl)phenyl]-4-methyl-phenyl]-3-(1-piperidyl)benzamide

> <PUBCHEM_IUPAC_CAS_NAME>
N-[3-[4-[(cyclopropylmethylamino)-oxomethyl]phenyl]-4-methylphenyl]-3-(1-piperidinyl)benzamide

> <PUBCHEM_IUPAC_NAME>
N-[3-[4-(cyclopropylmethylcarbamoyl)phenyl]-4-methylphenyl]-3-piperidin-1-ylbenzamide

> <PUBCHEM_IUPAC_SYSTEMATIC_NAME>
N-[3-[4-(cyclopropylmethylcarbamoyl)phenyl]-4-methyl-phenyl]-3-piperidin-1-yl-benzamide

> <PUBCHEM_IUPAC_TRADITIONAL_NAME>
N-[3-[4-(cyclopropylmethylcarbamoyl)phenyl]-4-methyl-phenyl]-3-piperidino-benzamide

> <PUBCHEM_IUPAC_INCHI>
InChI=1S/C30H33N3O2/c1-21-8-15-26(32-30(35)25-6-5-7-27(18-25)33-16-3-2-4-17-33)19-28(21)23-11-13-24(14-12-23)29(34)31-20-22-9-10-22/h5-8,11-15,18-19,22H,2-4,9-10,16-17,20H2,1H3,(H,31,34)(H,32,35)

> <PUBCHEM_IUPAC_INCHIKEY>
DANPUZSWWCDWEM-UHFFFAOYSA-N

> <PUBCHEM_XLOGP3_AA>
5.7

> <PUBCHEM_EXACT_MASS>
467.257

> <PUBCHEM_MOLECULAR_FORMULA>
C30H33N3O2

> <PUBCHEM_MOLECULAR_WEIGHT>
467.613

> <PUBCHEM_OPENEYE_CAN_SMILES>
CC1=C(C=C(C=C1)NC(=O)C2=CC(=CC=C2)N3CCCCC3)C4=CC=C(C=C4)C(=O)NCC5CC5

> <PUBCHEM_OPENEYE_ISO_SMILES>
CC1=C(C=C(C=C1)NC(=O)C2=CC(=CC=C2)N3CCCCC3)C4=CC=C(C=C4)C(=O)NCC5CC5

> <PUBCHEM_CACTVS_TPSA>
61.4

> <PUBCHEM_MONOISOTOPIC_WEIGHT>
467.257

> <PUBCHEM_TOTAL_CHARGE>
0

> <PUBCHEM_HEAVY_ATOM_COUNT>
35

> <PUBCHEM_ATOM_DEF_STEREO_COUNT>
0

> <PUBCHEM_ATOM_UDEF_STEREO_COUNT>
0

> <PUBCHEM_BOND_DEF_STEREO_COUNT>
0

> <PUBCHEM_BOND_UDEF_STEREO_COUNT>
0

> <PUBCHEM_ISOTOPIC_ATOM_COUNT>
0

> <PUBCHEM_COMPONENT_COUNT>
1

> <PUBCHEM_CACTVS_TAUTO_COUNT>
4

> <PUBCHEM_COORDINATE_TYPE>
1
5
255

> <PUBCHEM_BONDANNOTATIONS>
16  18  8
16  19  8
17  20  8
17  21  8
18  22  8
19  23  8
20  25  8
21  26  8
22  27  8
23  27  8
24  25  8
24  26  8
28  30  8
28  32  8
30  33  8
31  32  8
31  34  8
33  34  8

$$$$
10142586
  -OEChem-11021605012D

 69 73  0     0  0  0  0  0  0999 V2000
    3.7320   -2.3662    0.0000 S   0  0  0  0  0  0  0  0  0  0  0  0
    9.7260   -2.8662    0.0000 O   0  0  0  0  0  0  0  0  0  0  0  0
    3.2320   -1.5002    0.0000 O   0  0  0  0  0  0  0  0  0  0  0  0
    4.2320   -3.2322    0.0000 O   0  0  0  0  0  0  0  0  0  0  0  0
   11.6527    3.1035    0.0000 N   0  0  0  0  0  0  0  0  0  0  0  0
    9.4315   -0.9048    0.0000 N   0  0  0  0  0  0  0  0  0  0  0  0
    8.1424   -3.6710    0.0000 N   0  0  0  0  0  0  0  0  0  0  0  0
    4.5981   -1.8662    0.0000 N   0  0  0  0  0  0  0  0  0  0  0  0
   12.3205    2.3592    0.0000 C   0  0  0  0  0  0  0  0  0  0  0  0
   11.9634    4.0541    0.0000 C   0  0  0  0  0  0  0  0  0  0  0  0
   13.2990    2.5655    0.0000 C   0  0  0  0  0  0  0  0  0  0  0  0
   12.9419    4.2603    0.0000 C   0  0  0  0  0  0  0  0  0  0  0  0
   13.6097    3.5160    0.0000 C   0  0  0  0  0  0  0  0  0  0  0  0
   10.6742    2.8973    0.0000 C   0  0  0  0  0  0  0  0  0  0  0  0
   10.3635    1.9468    0.0000 C   0  0  0  0  0  0  0  0  0  0  0  0
    9.3850    1.7406    0.0000 C   0  0  0  0  0  0  0  0  0  0  0  0
   11.0314    1.2025    0.0000 C   0  0  0  0  0  0  0  0  0  0  0  0
    9.7422    0.0458    0.0000 C   0  0  0  0  0  0  0  0  0  0  0  0
    9.0744    0.7901    0.0000 C   0  0  0  0  0  0  0  0  0  0  0  0
   10.7207    0.2520    0.0000 C   0  0  0  0  0  0  0  0  0  0  0  0
    8.1424   -2.0615    0.0000 C   0  0  0  0  0  0  0  0  0  0  0  0
    7.1962   -2.3662    0.0000 C   0  0  0  0  0  0  0  0  0  0  0  0
    8.4530   -1.1110    0.0000 C   0  0  0  0  0  0  0  0  0  0  0  0
    7.1962   -3.3662    0.0000 C   0  0  0  0  0  0  0  0  0  0  0  0
    8.7260   -2.8662    0.0000 C   0  0  0  0  0  0  0  0  0  0  0  0
    6.3301   -1.8662    0.0000 C   0  0  0  0  0  0  0  0  0  0  0  0
    5.4641   -2.3662    0.0000 C   0  0  0  0  0  0  0  0  0  0  0  0
    7.7852   -0.3667    0.0000 C   0  0  0  0  0  0  0  0  0  0  0  0
    6.3301   -3.8662    0.0000 C   0  0  0  0  0  0  0  0  0  0  0  0
    5.4641   -3.3662    0.0000 C   0  0  0  0  0  0  0  0  0  0  0  0
    8.0958    0.5838    0.0000 C   0  0  0  0  0  0  0  0  0  0  0  0
    6.8067   -0.5729    0.0000 C   0  0  0  0  0  0  0  0  0  0  0  0
    2.8660   -2.8662    0.0000 C   0  0  0  0  0  0  0  0  0  0  0  0
    7.4280    1.3282    0.0000 C   0  0  0  0  0  0  0  0  0  0  0  0
    6.1388    0.1714    0.0000 C   0  0  0  0  0  0  0  0  0  0  0  0
    2.0000   -2.3662    0.0000 C   0  0  0  0  0  0  0  0  0  0  0  0
    6.4495    1.1219    0.0000 C   0  0  0  0  0  0  0  0  0  0  0  0
   11.7942    2.0316    0.0000 H   0  0  0  0  0  0  0  0  0  0  0  0
   12.5518    1.7840    0.0000 H   0  0  0  0  0  0  0  0  0  0  0  0
   11.9428    4.6737    0.0000 H   0  0  0  0  0  0  0  0  0  0  0  0
   11.3495    4.1414    0.0000 H   0  0  0  0  0  0  0  0  0  0  0  0
   13.4682    4.5879    0.0000 H   0  0  0  0  0  0  0  0  0  0  0  0
   12.7106    4.8355    0.0000 H   0  0  0  0  0  0  0  0  0  0  0  0
   13.3196    1.9458    0.0000 H   0  0  0  0  0  0  0  0  0  0  0  0
   13.9129    2.4781    0.0000 H   0  0  0  0  0  0  0  0  0  0  0  0
   14.1566    3.2240    0.0000 H   0  0  0  0  0  0  0  0  0  0  0  0
   13.9923    4.0039    0.0000 H   0  0  0  0  0  0  0  0  0  0  0  0
   10.6536    3.5170    0.0000 H   0  0  0  0  0  0  0  0  0  0  0  0
   10.0604    2.9847    0.0000 H   0  0  0  0  0  0  0  0  0  0  0  0
    8.9710    2.2020    0.0000 H   0  0  0  0  0  0  0  0  0  0  0  0
   11.6380    1.3304    0.0000 H   0  0  0  0  0  0  0  0  0  0  0  0
    8.4677    0.6622    0.0000 H   0  0  0  0  0  0  0  0  0  0  0  0
   11.1348   -0.2095    0.0000 H   0  0  0  0  0  0  0  0  0  0  0  0
    9.8456   -1.3662    0.0000 H   0  0  0  0  0  0  0  0  0  0  0  0
    6.3301   -1.2462    0.0000 H   0  0  0  0  0  0  0  0  0  0  0  0
    8.3350   -4.2603    0.0000 H   0  0  0  0  0  0  0  0  0  0  0  0
    6.3301   -4.4862    0.0000 H   0  0  0  0  0  0  0  0  0  0  0  0
    4.9272   -3.6762    0.0000 H   0  0  0  0  0  0  0  0  0  0  0  0
    4.5981   -1.2462    0.0000 H   0  0  0  0  0  0  0  0  0  0  0  0
    8.7025    0.7117    0.0000 H   0  0  0  0  0  0  0  0  0  0  0  0
    6.6141   -1.1622    0.0000 H   0  0  0  0  0  0  0  0  0  0  0  0
    2.4675   -3.3412    0.0000 H   0  0  0  0  0  0  0  0  0  0  0  0
    3.2646   -3.3412    0.0000 H   0  0  0  0  0  0  0  0  0  0  0  0
    7.6206    1.9175    0.0000 H   0  0  0  0  0  0  0  0  0  0  0  0
    5.5322    0.0436    0.0000 H   0  0  0  0  0  0  0  0  0  0  0  0
    2.3100   -1.8293    0.0000 H   0  0  0  0  0  0  0  0  0  0  0  0
    1.4631   -2.0562    0.0000 H   0  0  0  0  0  0  0  0  0  0  0  0
    1.6900   -2.9032    0.0000 H   0  0  0  0  0  0  0  0  0  0  0  0
    6.0354    1.5834    0.0000 H   0  0  0  0  0  0  0  0  0  0  0  0
  1  3  2  0  0  0  0
  1  4  2  0  0  0  0
  1  8  1  0  0  0  0
  1 33  1  0  0  0  0
  2 25  2  0  0  0  0
  5  9  1  0  0  0  0
  5 10  1  0  0  0  0
  5 14  1  0  0  0  0
  6 18  1  0  0  0  0
  6 23  1  0  0  0  0
  6 54  1  0  0  0  0
  7 24  1  0  0  0  0
  7 25  1  0  0  0  0
  7 56  1  0  0  0  0
  8 27  1  0  0  0  0
  8 59  1  0  0  0  0
  9 11  1  0  0  0  0
  9 38  1  0  0  0  0
  9 39  1  0  0  0  0
 10 12  1  0  0  0  0
 10 40  1  0  0  0  0
 10 41  1  0  0  0  0
 11 13  1  0  0  0  0
 11 44  1  0  0  0  0
 11 45  1  0  0  0  0
 12 13  1  0  0  0  0
 12 42  1  0  0  0  0
 12 43  1  0  0  0  0
 13 46  1  0  0  0  0
 13 47  1  0  0  0  0
 14 15  1  0  0  0  0
 14 48  1  0  0  0  0
 14 49  1  0  0  0  0
 15 16  2  0  0  0  0
 15 17  1  0  0  0  0
 16 19  1  0  0  0  0
 16 50  1  0  0  0  0
 17 20  2  0  0  0  0
 17 51  1  0  0  0  0
 18 19  2  0  0  0  0
 18 20  1  0  0  0  0
 19 52  1  0  0  0  0
 20 53  1  0  0  0  0
 21 22  1  0  0  0  0
 21 23  2  0  0  0  0
 21 25  1  0  0  0  0
 22 24  2  0  0  0  0
 22 26  1  0  0  0  0
 23 28  1  0  0  0  0
 24 29  1  0  0  0  0
 26 27  2  0  0  0  0
 26 55  1  0  0  0  0
 27 30  1  0  0  0  0
 28 31  2  0  0  0  0
 28 32  1  0  0  0  0
 29 30  2  0  0  0  0
 29 57  1  0  0  0  0
 30 58  1  0  0  0  0
 31 34  1  0  0  0  0
 31 60  1  0  0  0  0
 32 35  2  0  0  0  0
 32 61  1  0  0  0  0
 33 36  1  0  0  0  0
 33 62  1  0  0  0  0
 33 63  1  0  0  0  0
 34 37  2  0  0  0  0
 34 64  1  0  0  0  0
 35 37  1  0  0  0  0
 35 65  1  0  0  0  0
 36 66  1  0  0  0  0
 36 67  1  0  0  0  0
 36 68  1  0  0  0  0
 37 69  1  0  0  0  0
M  END
> <PUBCHEM_COMPOUND_CID>
10142586

> <PUBCHEM_COMPOUND_CANONICALIZED>
1

> <PUBCHEM_CACTVS_COMPLEXITY>
910

> <PUBCHEM_CACTVS_HBOND_ACCEPTOR>
6

> <PUBCHEM_CACTVS_HBOND_DONOR>
3

> <PUBCHEM_CACTVS_ROTATABLE_BOND>
8

> <PUBCHEM_CACTVS_SUBSKEYS>
AAADcfB7sABAAAAAAAAAAAAAAAAAAWAAAAA8YMEAAAAAAFgBUAAAHgQQQAAADAjF2ASywIPAAAKIAiVSUHDCAAAhAgAIiAEIZMgIIDLAlZGEIAhglADIyUcciYCeCACAQAACAAAQAQCAAAQAAAAAAAAAAA==

> <PUBCHEM_IUPAC_OPENEYE_NAME>
N-[(3Z)-2-oxo-3-[phenyl-[4-(1-piperidylmethyl)anilino]methylene]indolin-5-yl]ethanesulfonamide

> <PUBCHEM_IUPAC_CAS_NAME>
N-[(3Z)-2-oxo-3-[phenyl-[4-(1-piperidinylmethyl)anilino]methylidene]-1H-indol-5-yl]ethanesulfonamide

> <PUBCHEM_IUPAC_NAME>
N-[(3Z)-2-oxo-3-[phenyl-[4-(piperidin-1-ylmethyl)anilino]methylidene]-1H-indol-5-yl]ethanesulfonamide

> <PUBCHEM_IUPAC_SYSTEMATIC_NAME>
N-[(3Z)-2-oxidanylidene-3-[phenyl-[[4-(piperidin-1-ylmethyl)phenyl]amino]methylidene]-1H-indol-5-yl]ethanesulfonamide

> <PUBCHEM_IUPAC_TRADITIONAL_NAME>
N-[(3Z)-2-keto-3-[phenyl-[4-(piperidinomethyl)anilino]methylene]indolin-5-yl]ethanesulfonamide

> <PUBCHEM_IUPAC_INCHI>
InChI=1S/C29H32N4O3S/c1-2-37(35,36)32-24-15-16-26-25(19-24)27(29(34)31-26)28(22-9-5-3-6-10-22)30-23-13-11-21(12-14-23)20-33-17-7-4-8-18-33/h3,5-6,9-16,19,30,32H,2,4,7-8,17-18,20H2,1H3,(H,31,34)/b28-27-

> <PUBCHEM_IUPAC_INCHIKEY>
GLDSKRNGVVYJAB-DQSJHHFOSA-N

> <PUBCHEM_XLOGP3_AA>
4.2

> <PUBCHEM_EXACT_MASS>
516.22

> <PUBCHEM_MOLECULAR_FORMULA>
C29H32N4O3S

> <PUBCHEM_MOLECULAR_WEIGHT>
516.66

> <PUBCHEM_OPENEYE_CAN_SMILES>
CCS(=O)(=O)NC1=CC2=C(C=C1)NC(=O)C2=C(C3=CC=CC=C3)NC4=CC=C(C=C4)CN5CCCCC5

> <PUBCHEM_OPENEYE_ISO_SMILES>
CCS(=O)(=O)NC1=CC\2=C(C=C1)NC(=O)/C2=C(/C3=CC=CC=C3)\NC4=CC=C(C=C4)CN5CCCCC5

> <PUBCHEM_CACTVS_TPSA>
98.9

> <PUBCHEM_MONOISOTOPIC_WEIGHT>
516.22

> <PUBCHEM_TOTAL_CHARGE>
0

> <PUBCHEM_HEAVY_ATOM_COUNT>
37

> <PUBCHEM_ATOM_DEF_STEREO_COUNT>
0

> <PUBCHEM_ATOM_UDEF_STEREO_COUNT>
0

> <PUBCHEM_BOND_DEF_STEREO_COUNT>
1

> <PUBCHEM_BOND_UDEF_STEREO_COUNT>
0

> <PUBCHEM_ISOTOPIC_ATOM_COUNT>
0

> <PUBCHEM_COMPONENT_COUNT>
1

> <PUBCHEM_CACTVS_TAUTO_COUNT>
5

> <PUBCHEM_COORDINATE_TYPE>
1
5
255

> <PUBCHEM_BONDANNOTATIONS>
15  16  8
15  17  8
16  19  8
17  20  8
18  19  8
18  20  8
22  24  8
22  26  8
24  29  8
26  27  8
27  30  8
28  31  8
28  32  8
29  30  8
31  34  8
32  35  8
34  37  8
35  37  8

$$$$
9925594
  -OEChem-11021605012D

 36 38  0     0  0  0  0  0  0999 V2000
    6.6381   -1.2346    0.0000 O   0  0  0  0  0  0  0  0  0  0  0  0
    3.8611    0.0526    0.0000 N   0  0  0  0  0  0  0  0  0  0  0  0
    2.4067    3.4307    0.0000 N   0  0  0  0  0  0  0  0  0  0  0  0
    4.6701   -3.5352    0.0000 N   0  0  0  0  0  0  0  0  0  0  0  0
    5.1701    1.0036    0.0000 C   0  0  0  0  0  0  0  0  0  0  0  0
    5.4791    0.0526    0.0000 C   0  0  0  0  0  0  0  0  0  0  0  0
    4.1701    1.0036    0.0000 C   0  0  0  0  0  0  0  0  0  0  0  0
    4.6701   -0.5352    0.0000 C   0  0  0  0  0  0  0  0  0  0  0  0
    3.5823    1.8126    0.0000 C   0  0  0  0  0  0  0  0  0  0  0  0
    4.6701   -1.5352    0.0000 C   0  0  0  0  0  0  0  0  0  0  0  0
    5.7579    1.8126    0.0000 C   0  0  0  0  0  0  0  0  0  0  0  0
    6.4302   -0.2564    0.0000 C   0  0  0  0  0  0  0  0  0  0  0  0
    2.5878    1.7081    0.0000 C   0  0  0  0  0  0  0  0  0  0  0  0
    3.9890    2.7262    0.0000 C   0  0  0  0  0  0  0  0  0  0  0  0
    5.5361   -2.0352    0.0000 C   0  0  0  0  0  0  0  0  0  0  0  0
    3.8041   -2.0352    0.0000 C   0  0  0  0  0  0  0  0  0  0  0  0
    7.1733    0.4127    0.0000 C   0  0  0  0  0  0  0  0  0  0  0  0
    2.0000    2.5171    0.0000 C   0  0  0  0  0  0  0  0  0  0  0  0
    3.4013    3.5352    0.0000 C   0  0  0  0  0  0  0  0  0  0  0  0
    5.5361   -3.0352    0.0000 C   0  0  0  0  0  0  0  0  0  0  0  0
    3.8041   -3.0352    0.0000 C   0  0  0  0  0  0  0  0  0  0  0  0
    3.2714   -0.1390    0.0000 H   0  0  0  0  0  0  0  0  0  0  0  0
    6.2595    1.4482    0.0000 H   0  0  0  0  0  0  0  0  0  0  0  0
    6.1223    2.3142    0.0000 H   0  0  0  0  0  0  0  0  0  0  0  0
    5.2563    2.1771    0.0000 H   0  0  0  0  0  0  0  0  0  0  0  0
    2.3356    1.1417    0.0000 H   0  0  0  0  0  0  0  0  0  0  0  0
    4.6056    2.7910    0.0000 H   0  0  0  0  0  0  0  0  0  0  0  0
    6.0730   -1.7252    0.0000 H   0  0  0  0  0  0  0  0  0  0  0  0
    3.2671   -1.7252    0.0000 H   0  0  0  0  0  0  0  0  0  0  0  0
    7.5882   -0.0481    0.0000 H   0  0  0  0  0  0  0  0  0  0  0  0
    7.6341    0.8275    0.0000 H   0  0  0  0  0  0  0  0  0  0  0  0
    6.7584    0.8734    0.0000 H   0  0  0  0  0  0  0  0  0  0  0  0
    1.3834    2.4523    0.0000 H   0  0  0  0  0  0  0  0  0  0  0  0
    3.6534    4.1016    0.0000 H   0  0  0  0  0  0  0  0  0  0  0  0
    6.0730   -3.3452    0.0000 H   0  0  0  0  0  0  0  0  0  0  0  0
    3.2671   -3.3452    0.0000 H   0  0  0  0  0  0  0  0  0  0  0  0
  1 12  2  0  0  0  0
  2  7  1  0  0  0  0
  2  8  1  0  0  0  0
  2 22  1  0  0  0  0
  3 18  2  0  0  0  0
  3 19  1  0  0  0  0
  4 20  2  0  0  0  0
  4 21  1  0  0  0  0
  5  6  1  0  0  0  0
  5  7  2  0  0  0  0
  5 11  1  0  0  0  0
  6  8  2  0  0  0  0
  6 12  1  0  0  0  0
  7  9  1  0  0  0  0
  8 10  1  0  0  0  0
  9 13  2  0  0  0  0
  9 14  1  0  0  0  0
 10 15  2  0  0  0  0
 10 16  1  0  0  0  0
 11 23  1  0  0  0  0
 11 24  1  0  0  0  0
 11 25  1  0  0  0  0
 12 17  1  0  0  0  0
 13 18  1  0  0  0  0
 13 26  1  0  0  0  0
 14 19  2  0  0  0  0
 14 27  1  0  0  0  0
 15 20  1  0  0  0  0
 15 28  1  0  0  0  0
 16 21  2  0  0  0  0
 16 29  1  0  0  0  0
 17 30  1  0  0  0  0
 17 31  1  0  0  0  0
 17 32  1  0  0  0  0
 18 33  1  0  0  0  0
 19 34  1  0  0  0  0
 20 35  1  0  0  0  0
 21 36  1  0  0  0  0
M  END
> <PUBCHEM_COMPOUND_CID>
9925594

> <PUBCHEM_COMPOUND_CANONICALIZED>
1

> <PUBCHEM_CACTVS_COMPLEXITY>
361

> <PUBCHEM_CACTVS_HBOND_ACCEPTOR>
3

> <PUBCHEM_CACTVS_HBOND_DONOR>
1

> <PUBCHEM_CACTVS_ROTATABLE_BOND>
3

> <PUBCHEM_CACTVS_SUBSKEYS>
AAADccB7IAAAAAAAAAAAAAAAAAAAAWAAAAAsWAAAAAAAAAAB+AAAHgAQAAAADAzBngQ+gJLJkACoA7R3RACCgCA1AiAI2SE4ZNgIIPrAlZGEIYhggADIyUcciMCOgAAAAAAAAAAAAAAAAAAAAAAAAAAAAA==

> <PUBCHEM_IUPAC_OPENEYE_NAME>
1-[4-methyl-2,5-bis(4-pyridyl)-1H-pyrrol-3-yl]ethanone

> <PUBCHEM_IUPAC_CAS_NAME>
1-(4-methyl-2,5-dipyridin-4-yl-1H-pyrrol-3-yl)ethanone

> <PUBCHEM_IUPAC_NAME>
1-(4-methyl-2,5-dipyridin-4-yl-1H-pyrrol-3-yl)ethanone

> <PUBCHEM_IUPAC_SYSTEMATIC_NAME>
1-(4-methyl-2,5-dipyridin-4-yl-1H-pyrrol-3-yl)ethanone

> <PUBCHEM_IUPAC_TRADITIONAL_NAME>
1-[4-methyl-2,5-bis(4-pyridyl)-1H-pyrrol-3-yl]ethanone

> <PUBCHEM_IUPAC_INCHI>
InChI=1S/C17H15N3O/c1-11-15(12(2)21)17(14-5-9-19-10-6-14)20-16(11)13-3-7-18-8-4-13/h3-10,20H,1-2H3

> <PUBCHEM_IUPAC_INCHIKEY>
CFDCGXXHXUZSNP-UHFFFAOYSA-N

> <PUBCHEM_XLOGP3_AA>
1.9

> <PUBCHEM_EXACT_MASS>
277.122

> <PUBCHEM_MOLECULAR_FORMULA>
C17H15N3O

> <PUBCHEM_MOLECULAR_WEIGHT>
277.327

> <PUBCHEM_OPENEYE_CAN_SMILES>
CC1=C(NC(=C1C(=O)C)C2=CC=NC=C2)C3=CC=NC=C3

> <PUBCHEM_OPENEYE_ISO_SMILES>
CC1=C(NC(=C1C(=O)C)C2=CC=NC=C2)C3=CC=NC=C3

> <PUBCHEM_CACTVS_TPSA>
58.6

> <PUBCHEM_MONOISOTOPIC_WEIGHT>
277.122

> <PUBCHEM_TOTAL_CHARGE>
0

> <PUBCHEM_HEAVY_ATOM_COUNT>
21

> <PUBCHEM_ATOM_DEF_STEREO_COUNT>
0

> <PUBCHEM_ATOM_UDEF_STEREO_COUNT>
0

> <PUBCHEM_BOND_DEF_STEREO_COUNT>
0

> <PUBCHEM_BOND_UDEF_STEREO_COUNT>
0

> <PUBCHEM_ISOTOPIC_ATOM_COUNT>
0

> <PUBCHEM_COMPONENT_COUNT>
1

> <PUBCHEM_CACTVS_TAUTO_COUNT>
21

> <PUBCHEM_COORDINATE_TYPE>
1
5
255

> <PUBCHEM_BONDANNOTATIONS>
10  15  8
10  16  8
13  18  8
14  19  8
15  20  8
16  21  8
2  7  8
2  8  8
3  18  8
3  19  8
4  20  8
4  21  8
5  6  8
5  7  8
6  8  8
9  13  8
9  14  8

$$$$
11268547
  -OEChem-11021605012D

 42 44  0     1  0  0  0  0  0999 V2000
    2.0182   -0.0857    0.0000 Cl  0  0  0  0  0  0  0  0  0  0  0  0
    9.8511   -0.5826    0.0000 O   0  0  0  0  0  0  0  0  0  0  0  0
    6.3864    0.4174    0.0000 O   0  0  0  0  0  0  0  0  0  0  0  0
    4.6544   -0.5826    0.0000 O   0  0  0  0  0  0  0  0  0  0  0  0
    5.5422    1.9489    0.0000 O   0  0  0  0  0  0  0  0  0  0  0  0
    4.6544   -2.5826    0.0000 O   0  0  0  0  0  0  0  0  0  0  0  0
    2.0024    1.9626    0.0000 O   0  0  0  0  0  0  0  0  0  0  0  0
    8.9845   -0.0825    0.0000 C   0  0  2  0  0  0  0  0  0  0  0  0
    8.9845   -1.0825    0.0000 C   0  0  1  0  0  0  0  0  0  0  0  0
    8.1185    0.4174    0.0000 C   0  0  0  0  0  0  0  0  0  0  0  0
    7.2525   -0.0825    0.0000 C   0  0  1  0  0  0  0  0  0  0  0  0
    8.1185   -1.5825    0.0000 C   0  0  0  0  0  0  0  0  0  0  0  0
    8.1185   -0.5825    0.0000 C   0  0  0  0  0  0  0  0  0  0  0  0
    7.2525   -1.0825    0.0000 C   0  0  0  0  0  0  0  0  0  0  0  0
    5.5204   -0.0825    0.0000 C   0  0  0  0  0  0  0  0  0  0  0  0
    4.6544    0.4174    0.0000 C   0  0  0  0  0  0  0  0  0  0  0  0
    3.7884   -0.0825    0.0000 C   0  0  0  0  0  0  0  0  0  0  0  0
    6.3864   -1.5825    0.0000 C   0  0  0  0  0  0  0  0  0  0  0  0
    3.7884   -1.0825    0.0000 C   0  0  0  0  0  0  0  0  0  0  0  0
    4.6704    1.4590    0.0000 C   0  0  0  0  0  0  0  0  0  0  0  0
    5.5204   -1.0825    0.0000 C   0  0  0  0  0  0  0  0  0  0  0  0
    4.6544   -1.5825    0.0000 C   0  0  0  0  0  0  0  0  0  0  0  0
    2.8784    0.4243    0.0000 C   0  0  0  0  0  0  0  0  0  0  0  0
    3.7724    1.9867    0.0000 C   0  0  0  0  0  0  0  0  0  0  0  0
    2.8703    1.4659    0.0000 C   0  0  0  0  0  0  0  0  0  0  0  0
    9.2944    0.4544    0.0000 H   0  0  0  0  0  0  0  0  0  0  0  0
    9.2944   -1.6195    0.0000 H   0  0  0  0  0  0  0  0  0  0  0  0
    8.5170    0.8924    0.0000 H   0  0  0  0  0  0  0  0  0  0  0  0
    7.7200    0.8924    0.0000 H   0  0  0  0  0  0  0  0  0  0  0  0
    6.9425   -0.6195    0.0000 H   0  0  0  0  0  0  0  0  0  0  0  0
    8.1185   -2.2026    0.0000 H   0  0  0  0  0  0  0  0  0  0  0  0
    7.8086   -1.1194    0.0000 H   0  0  0  0  0  0  0  0  0  0  0  0
    8.6555   -0.8924    0.0000 H   0  0  0  0  0  0  0  0  0  0  0  0
    8.4285   -0.0455    0.0000 H   0  0  0  0  0  0  0  0  0  0  0  0
    6.8539   -0.6076    0.0000 H   0  0  0  0  0  0  0  0  0  0  0  0
    6.3864   -2.2026    0.0000 H   0  0  0  0  0  0  0  0  0  0  0  0
    3.1778   -0.9749    0.0000 H   0  0  0  0  0  0  0  0  0  0  0  0
    3.5763   -1.6652    0.0000 H   0  0  0  0  0  0  0  0  0  0  0  0
    5.9190   -0.6076    0.0000 H   0  0  0  0  0  0  0  0  0  0  0  0
    3.7748    2.6067    0.0000 H   0  0  0  0  0  0  0  0  0  0  0  0
    5.5494    2.5689    0.0000 H   0  0  0  0  0  0  0  0  0  0  0  0
    2.0000    2.5826    0.0000 H   0  0  0  0  0  0  0  0  0  0  0  0
  1 23  1  0  0  0  0
  8  2  1  6  0  0  0
  9  2  1  6  0  0  0
  3 11  1  0  0  0  0
  3 15  1  0  0  0  0
  4 15  2  0  0  0  0
  5 20  1  0  0  0  0
  5 41  1  0  0  0  0
  6 22  2  0  0  0  0
  7 25  1  0  0  0  0
  7 42  1  0  0  0  0
  8  9  1  0  0  0  0
  8 10  1  0  0  0  0
  8 26  1  0  0  0  0
  9 12  1  0  0  0  0
  9 27  1  0  0  0  0
 10 11  1  0  0  0  0
 10 28  1  0  0  0  0
 10 29  1  0  0  0  0
 11 13  1  1  0  0  0
 11 30  1  0  0  0  0
 12 14  2  0  0  0  0
 12 31  1  0  0  0  0
 13 32  1  0  0  0  0
 13 33  1  0  0  0  0
 13 34  1  0  0  0  0
 14 18  1  0  0  0  0
 14 35  1  0  0  0  0
 15 16  1  0  0  0  0
 16 17  2  0  0  0  0
 16 20  1  0  0  0  0
 17 19  1  0  0  0  0
 17 23  1  0  0  0  0
 18 21  2  0  0  0  0
 18 36  1  0  0  0  0
 19 22  1  0  0  0  0
 19 37  1  0  0  0  0
 19 38  1  0  0  0  0
 20 24  2  0  0  0  0
 21 22  1  0  0  0  0
 21 39  1  0  0  0  0
 23 25  2  0  0  0  0
 24 25  1  0  0  0  0
 24 40  1  0  0  0  0
M  END
> <PUBCHEM_COMPOUND_CID>
11268547

> <PUBCHEM_COMPOUND_CANONICALIZED>
1

> <PUBCHEM_CACTVS_COMPLEXITY>
588

> <PUBCHEM_CACTVS_HBOND_ACCEPTOR>
6

> <PUBCHEM_CACTVS_HBOND_DONOR>
2

> <PUBCHEM_CACTVS_ROTATABLE_BOND>
0

> <PUBCHEM_CACTVS_SUBSKEYS>
AAADceB4OAAEAAAAAAAAAAAAEgAAAAAAAAAwAAAAAAAAAAABAAAAGgIACAAADBagmCIyDoAABgCIAqDSCAACAAAkJEAIiAEGC8gIJzaDNxqCcUAl4BUIuYfI7rzuoCABKAAZCABAQAJQADIQAAAAAAAAAA==

> <PUBCHEM_IUPAC_INCHI>
InChI=1S/C18H17ClO6/c1-9-6-15-14(25-15)5-3-2-4-10(20)7-11-16(18(23)24-9)12(21)8-13(22)17(11)19/h2-5,8-9,14-15,21-22H,6-7H2,1H3/b4-2+,5-3-/t9-,14-,15+/m1/s1

> <PUBCHEM_IUPAC_INCHIKEY>
WYZWZEOGROVVHK-HBUVGVEXSA-N

> <PUBCHEM_XLOGP3_AA>
3.4

> <PUBCHEM_EXACT_MASS>
364.071

> <PUBCHEM_MOLECULAR_FORMULA>
C18H17ClO6

> <PUBCHEM_MOLECULAR_WEIGHT>
364.778

> <PUBCHEM_OPENEYE_CAN_SMILES>
CC1CC2C(O2)C=CC=CC(=O)CC3=C(C(=CC(=C3Cl)O)O)C(=O)O1

> <PUBCHEM_OPENEYE_ISO_SMILES>
C[C@@H]1C[C@H]2[C@H](O2)/C=C\C=C\C(=O)CC3=C(C(=CC(=C3Cl)O)O)C(=O)O1

> <PUBCHEM_CACTVS_TPSA>
96.4

> <PUBCHEM_MONOISOTOPIC_WEIGHT>
364.071

> <PUBCHEM_TOTAL_CHARGE>
0

> <PUBCHEM_HEAVY_ATOM_COUNT>
25

> <PUBCHEM_ATOM_DEF_STEREO_COUNT>
3

> <PUBCHEM_ATOM_UDEF_STEREO_COUNT>
0

> <PUBCHEM_BOND_DEF_STEREO_COUNT>
2

> <PUBCHEM_BOND_UDEF_STEREO_COUNT>
0

> <PUBCHEM_ISOTOPIC_ATOM_COUNT>
0

> <PUBCHEM_COMPONENT_COUNT>
1

> <PUBCHEM_CACTVS_TAUTO_COUNT>
37

> <PUBCHEM_COORDINATE_TYPE>
1
5
255

> <PUBCHEM_BONDANNOTATIONS>
11  13  5
16  17  8
16  20  8
17  23  8
8  2  6
9  2  6
20  24  8
23  25  8
24  25  8

$$$$
44564085
  -OEChem-11021605012D

 54 55  0     1  0  0  0  0  0999 V2000
    3.7759    1.7863    0.0000 O   0  0  0  0  0  0  0  0  0  0  0  0
    8.1060    3.2863    0.0000 O   0  0  0  0  0  0  0  0  0  0  0  0
    2.8718    0.2894    0.0000 O   0  0  0  0  0  0  0  0  0  0  0  0
    5.5080    1.7863    0.0000 O   0  0  0  0  0  0  0  0  0  0  0  0
    4.6298   -2.7830    0.0000 O   0  0  0  0  0  0  0  0  0  0  0  0
    7.2400    1.7863    0.0000 C   0  0  1  0  0  0  0  0  0  0  0  0
    5.5080    2.7863    0.0000 C   0  0  0  0  0  0  0  0  0  0  0  0
    6.3740    3.2863    0.0000 C   0  0  0  0  0  0  0  0  0  0  0  0
    8.1060    1.2863    0.0000 C   0  0  0  0  0  0  0  0  0  0  0  0
    4.6419    3.2863    0.0000 C   0  0  0  0  0  0  0  0  0  0  0  0
    7.2400    2.7863    0.0000 C   0  0  0  0  0  0  0  0  0  0  0  0
    3.7759    2.7863    0.0000 C   0  0  2  0  0  0  0  0  0  0  0  0
    8.1060    0.2863    0.0000 C   0  0  0  0  0  0  0  0  0  0  0  0
    6.2400    1.7863    0.0000 C   0  0  0  0  0  0  0  0  0  0  0  0
    2.9099    3.2863    0.0000 C   0  0  0  0  0  0  0  0  0  0  0  0
    7.2400   -0.2137    0.0000 C   0  0  0  0  0  0  0  0  0  0  0  0
    5.5080   -0.2137    0.0000 C   0  0  0  0  0  0  0  0  0  0  0  0
    4.6419    0.2863    0.0000 C   0  0  0  0  0  0  0  0  0  0  0  0
    6.3740    0.2863    0.0000 C   0  0  0  0  0  0  0  0  0  0  0  0
    4.6419    1.2863    0.0000 C   0  0  0  0  0  0  0  0  0  0  0  0
    3.7319   -0.2206    0.0000 C   0  0  0  0  0  0  0  0  0  0  0  0
    5.5240   -1.2552    0.0000 C   0  0  0  0  0  0  0  0  0  0  0  0
    4.6260   -1.7830    0.0000 C   0  0  0  0  0  0  0  0  0  0  0  0
    3.7239   -1.2622    0.0000 C   0  0  0  0  0  0  0  0  0  0  0  0
    2.0000   -0.2005    0.0000 C   0  0  0  0  0  0  0  0  0  0  0  0
    3.7658   -3.2863    0.0000 C   0  0  0  0  0  0  0  0  0  0  0  0
    7.0795    1.1874    0.0000 H   0  0  0  0  0  0  0  0  0  0  0  0
    5.1094    2.3114    0.0000 H   0  0  0  0  0  0  0  0  0  0  0  0
    5.9065    2.3114    0.0000 H   0  0  0  0  0  0  0  0  0  0  0  0
    6.7725    3.7612    0.0000 H   0  0  0  0  0  0  0  0  0  0  0  0
    5.9755    3.7612    0.0000 H   0  0  0  0  0  0  0  0  0  0  0  0
    8.7166    1.1786    0.0000 H   0  0  0  0  0  0  0  0  0  0  0  0
    8.3181    1.8689    0.0000 H   0  0  0  0  0  0  0  0  0  0  0  0
    5.0405    3.7612    0.0000 H   0  0  0  0  0  0  0  0  0  0  0  0
    4.2434    3.7612    0.0000 H   0  0  0  0  0  0  0  0  0  0  0  0
    3.2390    2.4763    0.0000 H   0  0  0  0  0  0  0  0  0  0  0  0
    8.3181   -0.2963    0.0000 H   0  0  0  0  0  0  0  0  0  0  0  0
    8.7166    0.3940    0.0000 H   0  0  0  0  0  0  0  0  0  0  0  0
    6.2400    2.4063    0.0000 H   0  0  0  0  0  0  0  0  0  0  0  0
    5.6200    1.7864    0.0000 H   0  0  0  0  0  0  0  0  0  0  0  0
    6.2400    1.1663    0.0000 H   0  0  0  0  0  0  0  0  0  0  0  0
    3.2199    3.8232    0.0000 H   0  0  0  0  0  0  0  0  0  0  0  0
    2.3730    3.5963    0.0000 H   0  0  0  0  0  0  0  0  0  0  0  0
    2.5999    2.7494    0.0000 H   0  0  0  0  0  0  0  0  0  0  0  0
    7.2400   -0.8337    0.0000 H   0  0  0  0  0  0  0  0  0  0  0  0
    6.3740    0.9063    0.0000 H   0  0  0  0  0  0  0  0  0  0  0  0
    6.0645   -1.5590    0.0000 H   0  0  0  0  0  0  0  0  0  0  0  0
    3.1858   -1.5701    0.0000 H   0  0  0  0  0  0  0  0  0  0  0  0
    1.6962    0.3400    0.0000 H   0  0  0  0  0  0  0  0  0  0  0  0
    1.4595   -0.5043    0.0000 H   0  0  0  0  0  0  0  0  0  0  0  0
    2.3038   -0.7410    0.0000 H   0  0  0  0  0  0  0  0  0  0  0  0
    3.4537   -2.7506    0.0000 H   0  0  0  0  0  0  0  0  0  0  0  0
    3.2300   -3.5984    0.0000 H   0  0  0  0  0  0  0  0  0  0  0  0
    4.0778   -3.8220    0.0000 H   0  0  0  0  0  0  0  0  0  0  0  0
  1 12  1  0  0  0  0
  1 20  1  0  0  0  0
  2 11  2  0  0  0  0
  3 21  1  0  0  0  0
  3 25  1  0  0  0  0
  4 20  2  0  0  0  0
  5 23  1  0  0  0  0
  5 26  1  0  0  0  0
  6  9  1  0  0  0  0
  6 11  1  0  0  0  0
  6 14  1  6  0  0  0
  6 27  1  0  0  0  0
  7  8  1  0  0  0  0
  7 10  1  0  0  0  0
  7 28  1  0  0  0  0
  7 29  1  0  0  0  0
  8 11  1  0  0  0  0
  8 30  1  0  0  0  0
  8 31  1  0  0  0  0
  9 13  1  0  0  0  0
  9 32  1  0  0  0  0
  9 33  1  0  0  0  0
 10 12  1  0  0  0  0
 10 34  1  0  0  0  0
 10 35  1  0  0  0  0
 12 15  1  1  0  0  0
 12 36  1  0  0  0  0
 13 16  1  0  0  0  0
 13 37  1  0  0  0  0
 13 38  1  0  0  0  0
 14 39  1  0  0  0  0
 14 40  1  0  0  0  0
 14 41  1  0  0  0  0
 15 42  1  0  0  0  0
 15 43  1  0  0  0  0
 15 44  1  0  0  0  0
 16 19  2  0  0  0  0
 16 45  1  0  0  0  0
 17 18  2  0  0  0  0
 17 19  1  0  0  0  0
 17 22  1  0  0  0  0
 18 20  1  0  0  0  0
 18 21  1  0  0  0  0
 19 46  1  0  0  0  0
 21 24  2  0  0  0  0
 22 23  2  0  0  0  0
 22 47  1  0  0  0  0
 23 24  1  0  0  0  0
 24 48  1  0  0  0  0
 25 49  1  0  0  0  0
 25 50  1  0  0  0  0
 25 51  1  0  0  0  0
 26 52  1  0  0  0  0
 26 53  1  0  0  0  0
 26 54  1  0  0  0  0
M  END
> <PUBCHEM_COMPOUND_CID>
44564085

> <PUBCHEM_COMPOUND_CANONICALIZED>
1

> <PUBCHEM_CACTVS_COMPLEXITY>
501

> <PUBCHEM_CACTVS_HBOND_ACCEPTOR>
5

> <PUBCHEM_CACTVS_HBOND_DONOR>
0

> <PUBCHEM_CACTVS_ROTATABLE_BOND>
2

> <PUBCHEM_CACTVS_SUBSKEYS>
AAADceB4OAAAAAAAAAAAAAAAAAAAAAAAAAAwAAAAAAAAAAABAAAAGgAAAAAADRSgmAIyDoAABACIAqDSCAACCAAkIAAIiAEGCMgMJzaENRqCMWAl4BUIqQeI7PzOoAABCAAYAABAAAIQADAAAAAAAAAAAA==

> <PUBCHEM_IUPAC_OPENEYE_NAME>
(2E,6S,11S)-15,17-dimethoxy-6,11-dimethyl-12-oxabicyclo[12.4.0]octadeca-1(14),2,15,17-tetraene-7,13-dione

> <PUBCHEM_IUPAC_CAS_NAME>
(2E,6S,11S)-15,17-dimethoxy-6,11-dimethyl-12-oxabicyclo[12.4.0]octadeca-1(14),2,15,17-tetraene-7,13-dione

> <PUBCHEM_IUPAC_NAME>
(2E,6S,11S)-15,17-dimethoxy-6,11-dimethyl-12-oxabicyclo[12.4.0]octadeca-1(14),2,15,17-tetraene-7,13-dione

> <PUBCHEM_IUPAC_SYSTEMATIC_NAME>
(2E,6S,11S)-15,17-dimethoxy-6,11-dimethyl-12-oxabicyclo[12.4.0]octadeca-1(14),2,15,17-tetraene-7,13-dione

> <PUBCHEM_IUPAC_TRADITIONAL_NAME>
(2E,6S,11S)-15,17-dimethoxy-6,11-dimethyl-12-oxabicyclo[12.4.0]octadeca-1(14),2,15,17-tetraene-7,13-quinone

> <PUBCHEM_IUPAC_INCHI>
InChI=1S/C21H28O5/c1-14-8-5-6-10-16-12-17(24-3)13-19(25-4)20(16)21(23)26-15(2)9-7-11-18(14)22/h6,10,12-15H,5,7-9,11H2,1-4H3/b10-6+/t14-,15-/m0/s1

> <PUBCHEM_IUPAC_INCHIKEY>
AOLDAQSREUYBEV-LZPJFDPBSA-N

> <PUBCHEM_XLOGP3_AA>
4.3

> <PUBCHEM_EXACT_MASS>
360.194

> <PUBCHEM_MOLECULAR_FORMULA>
C21H28O5

> <PUBCHEM_MOLECULAR_WEIGHT>
360.45

> <PUBCHEM_OPENEYE_CAN_SMILES>
CC1CCC=CC2=CC(=CC(=C2C(=O)OC(CCCC1=O)C)OC)OC

> <PUBCHEM_OPENEYE_ISO_SMILES>
C[C@H]1CC/C=C/C2=CC(=CC(=C2C(=O)O[C@H](CCCC1=O)C)OC)OC

> <PUBCHEM_CACTVS_TPSA>
61.8

> <PUBCHEM_MONOISOTOPIC_WEIGHT>
360.194

> <PUBCHEM_TOTAL_CHARGE>
0

> <PUBCHEM_HEAVY_ATOM_COUNT>
26

> <PUBCHEM_ATOM_DEF_STEREO_COUNT>
2

> <PUBCHEM_ATOM_UDEF_STEREO_COUNT>
0

> <PUBCHEM_BOND_DEF_STEREO_COUNT>
1

> <PUBCHEM_BOND_UDEF_STEREO_COUNT>
0

> <PUBCHEM_ISOTOPIC_ATOM_COUNT>
0

> <PUBCHEM_COMPONENT_COUNT>
1

> <PUBCHEM_CACTVS_TAUTO_COUNT>
12

> <PUBCHEM_COORDINATE_TYPE>
1
5
255

> <PUBCHEM_BONDANNOTATIONS>
12  15  5
17  18  8
17  22  8
18  21  8
21  24  8
22  23  8
23  24  8
6  14  6

$$$$
5288382
  -OEChem-11021605012D

 80 81  0     1  0  0  0  0  0999 V2000
    8.4382    2.9513    0.0000 O   0  0  0  0  0  0  0  0  0  0  0  0
    6.7061    3.9513    0.0000 O   0  0  0  0  0  0  0  0  0  0  0  0
    4.2091   -0.6385    0.0000 O   0  0  0  0  0  0  0  0  0  0  0  0
   10.1702    0.9513    0.0000 O   0  0  0  0  0  0  0  0  0  0  0  0
    5.5813   -1.9288    0.0000 O   0  0  0  0  0  0  0  0  0  0  0  0
    8.3042   -1.5487    0.0000 O   0  0  0  0  0  0  0  0  0  0  0  0
   11.9023   -0.0487    0.0000 O   0  0  0  0  0  0  0  0  0  0  0  0
    3.5463    0.9617    0.0000 O   0  0  0  0  0  0  0  0  0  0  0  0
    8.6564   -4.2613    0.0000 O   0  0  0  0  0  0  0  0  0  0  0  0
   10.1702   -3.0487    0.0000 N   0  0  0  0  0  0  0  0  0  0  0  0
    2.4919   -0.4124    0.0000 N   0  0  0  0  0  0  0  0  0  0  0  0
    7.5722    2.4513    0.0000 C   0  0  1  0  0  0  0  0  0  0  0  0
    7.5722    1.4513    0.0000 C   0  0  0  0  0  0  0  0  0  0  0  0
    8.4382    0.9513    0.0000 C   0  0  1  0  0  0  0  0  0  0  0  0
    6.7061    2.9513    0.0000 C   0  0  1  0  0  0  0  0  0  0  0  0
    5.8401    2.4513    0.0000 C   0  0  2  0  0  0  0  0  0  0  0  0
    8.4382   -0.0487    0.0000 C   0  0  0  0  0  0  0  0  0  0  0  0
    9.3042    1.4513    0.0000 C   0  0  0  0  0  0  0  0  0  0  0  0
    5.8401    1.4513    0.0000 C   0  0  0  0  0  0  0  0  0  0  0  0
    4.9741    2.9513    0.0000 C   0  0  0  0  0  0  0  0  0  0  0  0
    9.3042   -0.5487    0.0000 C   0  0  0  0  0  0  0  0  0  0  0  0
    5.1330    0.7442    0.0000 C   0  0  0  0  0  0  0  0  0  0  0  0
    5.1330   -0.2558    0.0000 C   0  0  1  0  0  0  0  0  0  0  0  0
   10.1702   -0.0487    0.0000 C   0  0  0  0  0  0  0  0  0  0  0  0
    9.3042   -1.5487    0.0000 C   0  0  0  0  0  0  0  0  0  0  0  0
    8.4382    3.9513    0.0000 C   0  0  0  0  0  0  0  0  0  0  0  0
    5.8401   -0.9629    0.0000 C   0  0  2  0  0  0  0  0  0  0  0  0
    4.2091    1.1269    0.0000 C   0  0  0  0  0  0  0  0  0  0  0  0
   10.1702   -2.0487    0.0000 C   0  0  0  0  0  0  0  0  0  0  0  0
   11.0363   -0.5487    0.0000 C   0  0  0  0  0  0  0  0  0  0  0  0
   11.0363   -1.5487    0.0000 C   0  0  0  0  0  0  0  0  0  0  0  0
    6.8060   -0.7041    0.0000 C   0  0  0  0  0  0  0  0  0  0  0  0
    7.6720   -1.2041    0.0000 C   0  0  0  0  0  0  0  0  0  0  0  0
    3.4158   -0.0297    0.0000 C   0  0  0  0  0  0  0  0  0  0  0  0
    9.1556   -3.3948    0.0000 C   0  0  0  0  0  0  0  0  0  0  0  0
   11.0363    1.4513    0.0000 C   0  0  0  0  0  0  0  0  0  0  0  0
    4.6154   -2.1877    0.0000 C   0  0  0  0  0  0  0  0  0  0  0  0
    8.8968   -2.4288    0.0000 C   0  0  0  0  0  0  0  0  0  0  0  0
    7.9309   -2.1700    0.0000 C   0  0  0  0  0  0  0  0  0  0  0  0
    9.8388   -1.7692    0.0000 C   0  0  0  0  0  0  0  0  0  0  0  0
    8.1091    2.1413    0.0000 H   0  0  0  0  0  0  0  0  0  0  0  0
    6.9616    1.5590    0.0000 H   0  0  0  0  0  0  0  0  0  0  0  0
    7.3601    0.8687    0.0000 H   0  0  0  0  0  0  0  0  0  0  0  0
    8.4382    1.5713    0.0000 H   0  0  0  0  0  0  0  0  0  0  0  0
    7.2431    3.2613    0.0000 H   0  0  0  0  0  0  0  0  0  0  0  0
    5.8401    3.0713    0.0000 H   0  0  0  0  0  0  0  0  0  0  0  0
    7.8276    0.0589    0.0000 H   0  0  0  0  0  0  0  0  0  0  0  0
    8.2261   -0.6313    0.0000 H   0  0  0  0  0  0  0  0  0  0  0  0
    9.6142    0.9144    0.0000 H   0  0  0  0  0  0  0  0  0  0  0  0
    9.8411    1.7613    0.0000 H   0  0  0  0  0  0  0  0  0  0  0  0
    8.9942    1.9882    0.0000 H   0  0  0  0  0  0  0  0  0  0  0  0
    6.4129    1.2140    0.0000 H   0  0  0  0  0  0  0  0  0  0  0  0
    5.2841    3.4882    0.0000 H   0  0  0  0  0  0  0  0  0  0  0  0
    4.4371    3.2613    0.0000 H   0  0  0  0  0  0  0  0  0  0  0  0
    4.6641    2.4144    0.0000 H   0  0  0  0  0  0  0  0  0  0  0  0
    6.1692    4.2613    0.0000 H   0  0  0  0  0  0  0  0  0  0  0  0
    4.6175    0.0886    0.0000 H   0  0  0  0  0  0  0  0  0  0  0  0
    9.0582    3.9513    0.0000 H   0  0  0  0  0  0  0  0  0  0  0  0
    8.4382    4.5713    0.0000 H   0  0  0  0  0  0  0  0  0  0  0  0
    7.8182    3.9513    0.0000 H   0  0  0  0  0  0  0  0  0  0  0  0
    6.2785   -1.4013    0.0000 H   0  0  0  0  0  0  0  0  0  0  0  0
    4.4464    1.6997    0.0000 H   0  0  0  0  0  0  0  0  0  0  0  0
    3.6363    1.3641    0.0000 H   0  0  0  0  0  0  0  0  0  0  0  0
    3.9718    0.5541    0.0000 H   0  0  0  0  0  0  0  0  0  0  0  0
   11.5732   -1.8587    0.0000 H   0  0  0  0  0  0  0  0  0  0  0  0
    6.8870   -0.0894    0.0000 H   0  0  0  0  0  0  0  0  0  0  0  0
   10.6914   -3.3846    0.0000 H   0  0  0  0  0  0  0  0  0  0  0  0
    8.1639   -0.8267    0.0000 H   0  0  0  0  0  0  0  0  0  0  0  0
   11.3463    0.9144    0.0000 H   0  0  0  0  0  0  0  0  0  0  0  0
   11.5732    1.7613    0.0000 H   0  0  0  0  0  0  0  0  0  0  0  0
   10.7263    1.9882    0.0000 H   0  0  0  0  0  0  0  0  0  0  0  0
    4.4549   -1.5888    0.0000 H   0  0  0  0  0  0  0  0  0  0  0  0
    4.0165   -2.3481    0.0000 H   0  0  0  0  0  0  0  0  0  0  0  0
    4.7758   -2.7866    0.0000 H   0  0  0  0  0  0  0  0  0  0  0  0
    7.4925   -2.6084    0.0000 H   0  0  0  0  0  0  0  0  0  0  0  0
   10.1944   -2.2771    0.0000 H   0  0  0  0  0  0  0  0  0  0  0  0
   10.3467   -1.4136    0.0000 H   0  0  0  0  0  0  0  0  0  0  0  0
    9.4832   -1.2614    0.0000 H   0  0  0  0  0  0  0  0  0  0  0  0
    2.0000   -0.0350    0.0000 H   0  0  0  0  0  0  0  0  0  0  0  0
    2.4110   -1.0271    0.0000 H   0  0  0  0  0  0  0  0  0  0  0  0
 12  1  1  1  0  0  0
  1 26  1  0  0  0  0
 15  2  1  1  0  0  0
  2 56  1  0  0  0  0
 23  3  1  1  0  0  0
  3 34  1  0  0  0  0
  4 24  1  0  0  0  0
  4 36  1  0  0  0  0
 27  5  1  6  0  0  0
  5 37  1  0  0  0  0
  6 25  2  0  0  0  0
  7 30  2  0  0  0  0
  8 34  2  0  0  0  0
  9 35  2  0  0  0  0
 10 29  1  0  0  0  0
 10 35  1  0  0  0  0
 10 67  1  0  0  0  0
 11 34  1  0  0  0  0
 11 79  1  0  0  0  0
 11 80  1  0  0  0  0
 12 13  1  0  0  0  0
 12 15  1  0  0  0  0
 12 41  1  0  0  0  0
 13 14  1  0  0  0  0
 13 42  1  0  0  0  0
 13 43  1  0  0  0  0
 14 17  1  0  0  0  0
 14 18  1  6  0  0  0
 14 44  1  0  0  0  0
 15 16  1  0  0  0  0
 15 45  1  0  0  0  0
 16 19  1  0  0  0  0
 16 20  1  6  0  0  0
 16 46  1  0  0  0  0
 17 21  1  0  0  0  0
 17 47  1  0  0  0  0
 17 48  1  0  0  0  0
 18 49  1  0  0  0  0
 18 50  1  0  0  0  0
 18 51  1  0  0  0  0
 19 22  2  0  0  0  0
 19 52  1  0  0  0  0
 20 53  1  0  0  0  0
 20 54  1  0  0  0  0
 20 55  1  0  0  0  0
 21 24  2  0  0  0  0
 21 25  1  0  0  0  0
 22 23  1  0  0  0  0
 22 28  1  0  0  0  0
 23 27  1  0  0  0  0
 23 57  1  0  0  0  0
 24 30  1  0  0  0  0
 25 29  1  0  0  0  0
 26 58  1  0  0  0  0
 26 59  1  0  0  0  0
 26 60  1  0  0  0  0
 27 32  1  0  0  0  0
 27 61  1  0  0  0  0
 28 62  1  0  0  0  0
 28 63  1  0  0  0  0
 28 64  1  0  0  0  0
 29 31  2  0  0  0  0
 30 31  1  0  0  0  0
 31 65  1  0  0  0  0
 32 33  2  0  0  0  0
 32 66  1  0  0  0  0
 33 39  1  0  0  0  0
 33 68  1  0  0  0  0
 35 38  1  0  0  0  0
 36 69  1  0  0  0  0
 36 70  1  0  0  0  0
 36 71  1  0  0  0  0
 37 72  1  0  0  0  0
 37 73  1  0  0  0  0
 37 74  1  0  0  0  0
 38 39  2  0  0  0  0
 38 40  1  0  0  0  0
 39 75  1  0  0  0  0
 40 76  1  0  0  0  0
 40 77  1  0  0  0  0
 40 78  1  0  0  0  0
M  END
> <PUBCHEM_COMPOUND_CID>
5288382

> <PUBCHEM_COMPOUND_CANONICALIZED>
1

> <PUBCHEM_CACTVS_COMPLEXITY>
1150

> <PUBCHEM_CACTVS_HBOND_ACCEPTOR>
9

> <PUBCHEM_CACTVS_HBOND_DONOR>
3

> <PUBCHEM_CACTVS_ROTATABLE_BOND>
5

> <PUBCHEM_CACTVS_SUBSKEYS>
AAADcfB7PAAAAAAAAAAAAAAAAAAAAAAAAAAgAAAAAAAAAAAAAAAAHgAQCAAADRyhgAICCALABgCIAqVSWAKACAAgIgAICAHAAEkJFBIAoSQMUAAExACLocOYyOCOAAAAAAAAAAAAAAAAAAAAAAAAAAAAAA==

> <PUBCHEM_IUPAC_OPENEYE_NAME>
[(3R,5S,6R,7S,8E,10S,11S,12Z,14E)-6-hydroxy-5,11,21-trimethoxy-3,7,9,15-tetramethyl-16,20,22-trioxo-17-azabicyclo[16.3.1]docosa-1(21),8,12,14,18-pentaen-10-yl] carbamate

> <PUBCHEM_IUPAC_CAS_NAME>
carbamic acid [(3R,5S,6R,7S,8E,10S,11S,12Z,14E)-6-hydroxy-5,11,21-trimethoxy-3,7,9,15-tetramethyl-16,20,22-trioxo-17-azabicyclo[16.3.1]docosa-1(21),8,12,14,18-pentaen-10-yl] ester

> <PUBCHEM_IUPAC_NAME>
[(3R,5S,6R,7S,8E,10S,11S,12Z,14E)-6-hydroxy-5,11,21-trimethoxy-3,7,9,15-tetramethyl-16,20,22-trioxo-17-azabicyclo[16.3.1]docosa-1(21),8,12,14,18-pentaen-10-yl] carbamate

> <PUBCHEM_IUPAC_SYSTEMATIC_NAME>
[(3R,5S,6R,7S,8E,10S,11S,12Z,14E)-5,11,21-trimethoxy-3,7,9,15-tetramethyl-6-oxidanyl-16,20,22-tris(oxidanylidene)-17-azabicyclo[16.3.1]docosa-1(21),8,12,14,18-pentaen-10-yl] carbamate

> <PUBCHEM_IUPAC_TRADITIONAL_NAME>
carbamic acid [(3R,5S,6R,7S,8E,10S,11S,12Z,14E)-6-hydroxy-16,20,22-triketo-5,11,21-trimethoxy-3,7,9,15-tetramethyl-17-azabicyclo[16.3.1]docosa-1(21),8,12,14,18-pentaen-10-yl] ester

> <PUBCHEM_IUPAC_INCHI>
InChI=1S/C29H40N2O9/c1-15-11-19-25(34)20(14-21(32)27(19)39-7)31-28(35)16(2)9-8-10-22(37-5)26(40-29(30)36)18(4)13-17(3)24(33)23(12-15)38-6/h8-10,13-15,17,22-24,26,33H,11-12H2,1-7H3,(H2,30,36)(H,31,35)/b10-8-,16-9+,18-13+/t15-,17+,22+,23+,24-,26+/m1/s1

> <PUBCHEM_IUPAC_INCHIKEY>
QTQAWLPCGQOSGP-KSRBKZBZSA-N

> <PUBCHEM_XLOGP3_AA>
2

> <PUBCHEM_EXACT_MASS>
560.273

> <PUBCHEM_MOLECULAR_FORMULA>
C29H40N2O9

> <PUBCHEM_MOLECULAR_WEIGHT>
560.644

> <PUBCHEM_OPENEYE_CAN_SMILES>
CC1CC(C(C(C=C(C(C(C=CC=C(C(=O)NC2=CC(=O)C(=C(C1)C2=O)OC)C)OC)OC(=O)N)C)C)O)OC

> <PUBCHEM_OPENEYE_ISO_SMILES>
C[C@H]1C[C@@H]([C@@H]([C@H](/C=C(/[C@@H]([C@H](/C=C\C=C(\C(=O)NC2=CC(=O)C(=C(C1)C2=O)OC)/C)OC)OC(=O)N)\C)C)O)OC

> <PUBCHEM_CACTVS_TPSA>
164

> <PUBCHEM_MONOISOTOPIC_WEIGHT>
560.273

> <PUBCHEM_TOTAL_CHARGE>
0

> <PUBCHEM_HEAVY_ATOM_COUNT>
40

> <PUBCHEM_ATOM_DEF_STEREO_COUNT>
6

> <PUBCHEM_ATOM_UDEF_STEREO_COUNT>
0

> <PUBCHEM_BOND_DEF_STEREO_COUNT>
3

> <PUBCHEM_BOND_UDEF_STEREO_COUNT>
0

> <PUBCHEM_ISOTOPIC_ATOM_COUNT>
0

> <PUBCHEM_COMPONENT_COUNT>
1

> <PUBCHEM_CACTVS_TAUTO_COUNT>
470

> <PUBCHEM_COORDINATE_TYPE>
1
5
255

> <PUBCHEM_BONDANNOTATIONS>
12  1  5
14  18  6
16  20  6
15  2  5
23  3  5
27  5  6

$$$$
42609853
  -OEChem-11021605012D

 48 49  0     1  0  0  0  0  0999 V2000
    3.4446    1.6907    0.0000 O   0  0  0  0  0  0  0  0  0  0  0  0
    7.7748    3.1907    0.0000 O   0  0  0  0  0  0  0  0  0  0  0  0
    5.1767    1.6907    0.0000 O   0  0  0  0  0  0  0  0  0  0  0  0
    2.5405    0.1938    0.0000 O   0  0  0  0  0  0  0  0  0  0  0  0
    4.2986   -2.8786    0.0000 O   0  0  0  0  0  0  0  0  0  0  0  0
    6.9088    1.6907    0.0000 C   0  0  1  0  0  0  0  0  0  0  0  0
    5.1767    2.6907    0.0000 C   0  0  0  0  0  0  0  0  0  0  0  0
    6.0427    3.1907    0.0000 C   0  0  0  0  0  0  0  0  0  0  0  0
    7.7748    1.1907    0.0000 C   0  0  0  0  0  0  0  0  0  0  0  0
    4.3107    3.1907    0.0000 C   0  0  0  0  0  0  0  0  0  0  0  0
    6.9088    2.6907    0.0000 C   0  0  0  0  0  0  0  0  0  0  0  0
    3.4446    2.6907    0.0000 C   0  0  2  0  0  0  0  0  0  0  0  0
    7.7748    0.1907    0.0000 C   0  0  0  0  0  0  0  0  0  0  0  0
    5.9088    1.6907    0.0000 C   0  0  0  0  0  0  0  0  0  0  0  0
    2.5786    3.1907    0.0000 C   0  0  0  0  0  0  0  0  0  0  0  0
    6.9088   -0.3093    0.0000 C   0  0  0  0  0  0  0  0  0  0  0  0
    5.1767   -0.3093    0.0000 C   0  0  0  0  0  0  0  0  0  0  0  0
    4.3107    0.1907    0.0000 C   0  0  0  0  0  0  0  0  0  0  0  0
    6.0427    0.1907    0.0000 C   0  0  0  0  0  0  0  0  0  0  0  0
    4.3107    1.1907    0.0000 C   0  0  0  0  0  0  0  0  0  0  0  0
    3.4007   -0.3162    0.0000 C   0  0  0  0  0  0  0  0  0  0  0  0
    5.1928   -1.3509    0.0000 C   0  0  0  0  0  0  0  0  0  0  0  0
    4.2947   -1.8786    0.0000 C   0  0  0  0  0  0  0  0  0  0  0  0
    3.3926   -1.3578    0.0000 C   0  0  0  0  0  0  0  0  0  0  0  0
    6.7483    1.0918    0.0000 H   0  0  0  0  0  0  0  0  0  0  0  0
    4.7782    2.2157    0.0000 H   0  0  0  0  0  0  0  0  0  0  0  0
    5.5752    2.2157    0.0000 H   0  0  0  0  0  0  0  0  0  0  0  0
    6.4412    3.6656    0.0000 H   0  0  0  0  0  0  0  0  0  0  0  0
    5.6442    3.6656    0.0000 H   0  0  0  0  0  0  0  0  0  0  0  0
    8.3854    1.0830    0.0000 H   0  0  0  0  0  0  0  0  0  0  0  0
    7.9868    1.7733    0.0000 H   0  0  0  0  0  0  0  0  0  0  0  0
    4.7092    3.6656    0.0000 H   0  0  0  0  0  0  0  0  0  0  0  0
    3.9121    3.6656    0.0000 H   0  0  0  0  0  0  0  0  0  0  0  0
    2.9077    2.3807    0.0000 H   0  0  0  0  0  0  0  0  0  0  0  0
    7.9868   -0.3919    0.0000 H   0  0  0  0  0  0  0  0  0  0  0  0
    8.3854    0.2983    0.0000 H   0  0  0  0  0  0  0  0  0  0  0  0
    5.9088    2.3107    0.0000 H   0  0  0  0  0  0  0  0  0  0  0  0
    5.2888    1.6907    0.0000 H   0  0  0  0  0  0  0  0  0  0  0  0
    5.9087    1.0707    0.0000 H   0  0  0  0  0  0  0  0  0  0  0  0
    2.8886    3.7276    0.0000 H   0  0  0  0  0  0  0  0  0  0  0  0
    2.0417    3.5007    0.0000 H   0  0  0  0  0  0  0  0  0  0  0  0
    2.2686    2.6537    0.0000 H   0  0  0  0  0  0  0  0  0  0  0  0
    6.9088   -0.9293    0.0000 H   0  0  0  0  0  0  0  0  0  0  0  0
    6.0427    0.8107    0.0000 H   0  0  0  0  0  0  0  0  0  0  0  0
    5.7332   -1.6546    0.0000 H   0  0  0  0  0  0  0  0  0  0  0  0
    2.8545   -1.6657    0.0000 H   0  0  0  0  0  0  0  0  0  0  0  0
    2.0000   -0.1100    0.0000 H   0  0  0  0  0  0  0  0  0  0  0  0
    3.7628   -3.1907    0.0000 H   0  0  0  0  0  0  0  0  0  0  0  0
  1 12  1  0  0  0  0
  1 20  1  0  0  0  0
  2 11  2  0  0  0  0
  3 20  2  0  0  0  0
  4 21  1  0  0  0  0
  4 47  1  0  0  0  0
  5 23  1  0  0  0  0
  5 48  1  0  0  0  0
  6  9  1  0  0  0  0
  6 11  1  0  0  0  0
  6 14  1  6  0  0  0
  6 25  1  0  0  0  0
  7  8  1  0  0  0  0
  7 10  1  0  0  0  0
  7 26  1  0  0  0  0
  7 27  1  0  0  0  0
  8 11  1  0  0  0  0
  8 28  1  0  0  0  0
  8 29  1  0  0  0  0
  9 13  1  0  0  0  0
  9 30  1  0  0  0  0
  9 31  1  0  0  0  0
 10 12  1  0  0  0  0
 10 32  1  0  0  0  0
 10 33  1  0  0  0  0
 12 15  1  1  0  0  0
 12 34  1  0  0  0  0
 13 16  1  0  0  0  0
 13 35  1  0  0  0  0
 13 36  1  0  0  0  0
 14 37  1  0  0  0  0
 14 38  1  0  0  0  0
 14 39  1  0  0  0  0
 15 40  1  0  0  0  0
 15 41  1  0  0  0  0
 15 42  1  0  0  0  0
 16 19  2  0  0  0  0
 16 43  1  0  0  0  0
 17 18  2  0  0  0  0
 17 19  1  0  0  0  0
 17 22  1  0  0  0  0
 18 20  1  0  0  0  0
 18 21  1  0  0  0  0
 19 44  1  0  0  0  0
 21 24  2  0  0  0  0
 22 23  2  0  0  0  0
 22 45  1  0  0  0  0
 23 24  1  0  0  0  0
 24 46  1  0  0  0  0
M  END
> <PUBCHEM_COMPOUND_CID>
42609853

> <PUBCHEM_COMPOUND_CANONICALIZED>
1

> <PUBCHEM_CACTVS_COMPLEXITY>
472

> <PUBCHEM_CACTVS_HBOND_ACCEPTOR>
5

> <PUBCHEM_CACTVS_HBOND_DONOR>
2

> <PUBCHEM_CACTVS_ROTATABLE_BOND>
0

> <PUBCHEM_CACTVS_SUBSKEYS>
AAADceB4OAAAAAAAAAAAAAAAAAAAAAAAAAAwAAAAAAAAAAABAAAAGgAACAAADRSgmAIyDoAABgCIAqDSCAACAAAkIAAIiAEGCMgIJzaCNRqCcUAl4BUIuQeI7PzOoAABCAAYAABAAAIQADAAAAAAAAAAAA==

> <PUBCHEM_IUPAC_OPENEYE_NAME>
(2E,6S,11S)-15,17-dihydroxy-6,11-dimethyl-12-oxabicyclo[12.4.0]octadeca-1(14),2,15,17-tetraene-7,13-dione

> <PUBCHEM_IUPAC_CAS_NAME>
(2E,6S,11S)-15,17-dihydroxy-6,11-dimethyl-12-oxabicyclo[12.4.0]octadeca-1(14),2,15,17-tetraene-7,13-dione

> <PUBCHEM_IUPAC_NAME>
(2E,6S,11S)-15,17-dihydroxy-6,11-dimethyl-12-oxabicyclo[12.4.0]octadeca-1(14),2,15,17-tetraene-7,13-dione

> <PUBCHEM_IUPAC_SYSTEMATIC_NAME>
(2E,6S,11S)-6,11-dimethyl-15,17-bis(oxidanyl)-12-oxabicyclo[12.4.0]octadeca-1(14),2,15,17-tetraene-7,13-dione

> <PUBCHEM_IUPAC_TRADITIONAL_NAME>
(2E,6S,11S)-15,17-dihydroxy-6,11-dimethyl-12-oxabicyclo[12.4.0]octadeca-1(14),2,15,17-tetraene-7,13-quinone

> <PUBCHEM_IUPAC_INCHI>
InChI=1S/C19H24O5/c1-12-6-3-4-8-14-10-15(20)11-17(22)18(14)19(23)24-13(2)7-5-9-16(12)21/h4,8,10-13,20,22H,3,5-7,9H2,1-2H3/b8-4+/t12-,13-/m0/s1

> <PUBCHEM_IUPAC_INCHIKEY>
UUJWDQDIRVJCGT-KMEVASEGSA-N

> <PUBCHEM_XLOGP3_AA>
4.2

> <PUBCHEM_EXACT_MASS>
332.162

> <PUBCHEM_MOLECULAR_FORMULA>
C19H24O5

> <PUBCHEM_MOLECULAR_WEIGHT>
332.396

> <PUBCHEM_OPENEYE_CAN_SMILES>
CC1CCC=CC2=CC(=CC(=C2C(=O)OC(CCCC1=O)C)O)O

> <PUBCHEM_OPENEYE_ISO_SMILES>
C[C@H]1CC/C=C/C2=CC(=CC(=C2C(=O)O[C@H](CCCC1=O)C)O)O

> <PUBCHEM_CACTVS_TPSA>
83.8

> <PUBCHEM_MONOISOTOPIC_WEIGHT>
332.162

> <PUBCHEM_TOTAL_CHARGE>
0

> <PUBCHEM_HEAVY_ATOM_COUNT>
24

> <PUBCHEM_ATOM_DEF_STEREO_COUNT>
2

> <PUBCHEM_ATOM_UDEF_STEREO_COUNT>
0

> <PUBCHEM_BOND_DEF_STEREO_COUNT>
1

> <PUBCHEM_BOND_UDEF_STEREO_COUNT>
0

> <PUBCHEM_ISOTOPIC_ATOM_COUNT>
0

> <PUBCHEM_COMPONENT_COUNT>
1

> <PUBCHEM_CACTVS_TAUTO_COUNT>
111

> <PUBCHEM_COORDINATE_TYPE>
1
5
255

> <PUBCHEM_BONDANNOTATIONS>
12  15  5
17  18  8
17  22  8
18  21  8
21  24  8
22  23  8
23  24  8
6  14  6

$$$$
44564086
  -OEChem-11021605012D

 51 52  0     1  0  0  0  0  0999 V2000
    3.4446    1.7863    0.0000 O   0  0  0  0  0  0  0  0  0  0  0  0
    7.7748    3.2863    0.0000 O   0  0  0  0  0  0  0  0  0  0  0  0
    5.1767    1.7863    0.0000 O   0  0  0  0  0  0  0  0  0  0  0  0
    2.5405    0.2894    0.0000 O   0  0  0  0  0  0  0  0  0  0  0  0
    4.2986   -2.7830    0.0000 O   0  0  0  0  0  0  0  0  0  0  0  0
    6.9088    1.7863    0.0000 C   0  0  1  0  0  0  0  0  0  0  0  0
    5.1767    2.7863    0.0000 C   0  0  0  0  0  0  0  0  0  0  0  0
    6.0427    3.2863    0.0000 C   0  0  0  0  0  0  0  0  0  0  0  0
    7.7748    1.2863    0.0000 C   0  0  0  0  0  0  0  0  0  0  0  0
    4.3107    3.2863    0.0000 C   0  0  0  0  0  0  0  0  0  0  0  0
    6.9088    2.7863    0.0000 C   0  0  0  0  0  0  0  0  0  0  0  0
    3.4446    2.7863    0.0000 C   0  0  2  0  0  0  0  0  0  0  0  0
    7.7748    0.2863    0.0000 C   0  0  0  0  0  0  0  0  0  0  0  0
    5.9088    1.7863    0.0000 C   0  0  0  0  0  0  0  0  0  0  0  0
    2.5786    3.2863    0.0000 C   0  0  0  0  0  0  0  0  0  0  0  0
    6.9088   -0.2137    0.0000 C   0  0  0  0  0  0  0  0  0  0  0  0
    5.1767   -0.2137    0.0000 C   0  0  0  0  0  0  0  0  0  0  0  0
    4.3107    0.2863    0.0000 C   0  0  0  0  0  0  0  0  0  0  0  0
    6.0427    0.2863    0.0000 C   0  0  0  0  0  0  0  0  0  0  0  0
    4.3107    1.2863    0.0000 C   0  0  0  0  0  0  0  0  0  0  0  0
    3.4007   -0.2206    0.0000 C   0  0  0  0  0  0  0  0  0  0  0  0
    5.1928   -1.2552    0.0000 C   0  0  0  0  0  0  0  0  0  0  0  0
    4.2947   -1.7830    0.0000 C   0  0  0  0  0  0  0  0  0  0  0  0
    3.3926   -1.2622    0.0000 C   0  0  0  0  0  0  0  0  0  0  0  0
    3.4345   -3.2863    0.0000 C   0  0  0  0  0  0  0  0  0  0  0  0
    6.7483    1.1874    0.0000 H   0  0  0  0  0  0  0  0  0  0  0  0
    4.7782    2.3114    0.0000 H   0  0  0  0  0  0  0  0  0  0  0  0
    5.5752    2.3114    0.0000 H   0  0  0  0  0  0  0  0  0  0  0  0
    6.4412    3.7612    0.0000 H   0  0  0  0  0  0  0  0  0  0  0  0
    5.6442    3.7612    0.0000 H   0  0  0  0  0  0  0  0  0  0  0  0
    8.3854    1.1786    0.0000 H   0  0  0  0  0  0  0  0  0  0  0  0
    7.9868    1.8689    0.0000 H   0  0  0  0  0  0  0  0  0  0  0  0
    4.7092    3.7612    0.0000 H   0  0  0  0  0  0  0  0  0  0  0  0
    3.9121    3.7612    0.0000 H   0  0  0  0  0  0  0  0  0  0  0  0
    2.9077    2.4763    0.0000 H   0  0  0  0  0  0  0  0  0  0  0  0
    7.9868   -0.2963    0.0000 H   0  0  0  0  0  0  0  0  0  0  0  0
    8.3854    0.3940    0.0000 H   0  0  0  0  0  0  0  0  0  0  0  0
    5.9088    2.4063    0.0000 H   0  0  0  0  0  0  0  0  0  0  0  0
    5.2888    1.7864    0.0000 H   0  0  0  0  0  0  0  0  0  0  0  0
    5.9087    1.1663    0.0000 H   0  0  0  0  0  0  0  0  0  0  0  0
    2.8886    3.8232    0.0000 H   0  0  0  0  0  0  0  0  0  0  0  0
    2.0417    3.5963    0.0000 H   0  0  0  0  0  0  0  0  0  0  0  0
    2.2686    2.7494    0.0000 H   0  0  0  0  0  0  0  0  0  0  0  0
    6.9088   -0.8337    0.0000 H   0  0  0  0  0  0  0  0  0  0  0  0
    6.0427    0.9063    0.0000 H   0  0  0  0  0  0  0  0  0  0  0  0
    5.7332   -1.5590    0.0000 H   0  0  0  0  0  0  0  0  0  0  0  0
    2.8545   -1.5701    0.0000 H   0  0  0  0  0  0  0  0  0  0  0  0
    2.0000   -0.0143    0.0000 H   0  0  0  0  0  0  0  0  0  0  0  0
    3.1224   -2.7506    0.0000 H   0  0  0  0  0  0  0  0  0  0  0  0
    2.8988   -3.5984    0.0000 H   0  0  0  0  0  0  0  0  0  0  0  0
    3.7466   -3.8220    0.0000 H   0  0  0  0  0  0  0  0  0  0  0  0
  1 12  1  0  0  0  0
  1 20  1  0  0  0  0
  2 11  2  0  0  0  0
  3 20  2  0  0  0  0
  4 21  1  0  0  0  0
  4 48  1  0  0  0  0
  5 23  1  0  0  0  0
  5 25  1  0  0  0  0
  6  9  1  0  0  0  0
  6 11  1  0  0  0  0
  6 14  1  6  0  0  0
  6 26  1  0  0  0  0
  7  8  1  0  0  0  0
  7 10  1  0  0  0  0
  7 27  1  0  0  0  0
  7 28  1  0  0  0  0
  8 11  1  0  0  0  0
  8 29  1  0  0  0  0
  8 30  1  0  0  0  0
  9 13  1  0  0  0  0
  9 31  1  0  0  0  0
  9 32  1  0  0  0  0
 10 12  1  0  0  0  0
 10 33  1  0  0  0  0
 10 34  1  0  0  0  0
 12 15  1  1  0  0  0
 12 35  1  0  0  0  0
 13 16  1  0  0  0  0
 13 36  1  0  0  0  0
 13 37  1  0  0  0  0
 14 38  1  0  0  0  0
 14 39  1  0  0  0  0
 14 40  1  0  0  0  0
 15 41  1  0  0  0  0
 15 42  1  0  0  0  0
 15 43  1  0  0  0  0
 16 19  2  0  0  0  0
 16 44  1  0  0  0  0
 17 18  2  0  0  0  0
 17 19  1  0  0  0  0
 17 22  1  0  0  0  0
 18 20  1  0  0  0  0
 18 21  1  0  0  0  0
 19 45  1  0  0  0  0
 21 24  2  0  0  0  0
 22 23  2  0  0  0  0
 22 46  1  0  0  0  0
 23 24  1  0  0  0  0
 24 47  1  0  0  0  0
 25 49  1  0  0  0  0
 25 50  1  0  0  0  0
 25 51  1  0  0  0  0
M  END
> <PUBCHEM_COMPOUND_CID>
44564086

> <PUBCHEM_COMPOUND_CANONICALIZED>
1

> <PUBCHEM_CACTVS_COMPLEXITY>
487

> <PUBCHEM_CACTVS_HBOND_ACCEPTOR>
5

> <PUBCHEM_CACTVS_HBOND_DONOR>
1

> <PUBCHEM_CACTVS_ROTATABLE_BOND>
1

> <PUBCHEM_CACTVS_SUBSKEYS>
AAADceB4OAAAAAAAAAAAAAAAAAAAAAAAAAAwAAAAAAAAAAABAAAAGgAACAAADRSgmAIyDoAABgCIAqDSCAACCAAkIAAIiAEGCMgMJzaGNRqCcWAl4BUIuQeI7PzOoAABCAAYAABAAAIQADAAAAAAAAAAAA==

> <PUBCHEM_IUPAC_OPENEYE_NAME>
(2E,6S,11S)-15-hydroxy-17-methoxy-6,11-dimethyl-12-oxabicyclo[12.4.0]octadeca-1(14),2,15,17-tetraene-7,13-dione

> <PUBCHEM_IUPAC_CAS_NAME>
(2E,6S,11S)-15-hydroxy-17-methoxy-6,11-dimethyl-12-oxabicyclo[12.4.0]octadeca-1(14),2,15,17-tetraene-7,13-dione

> <PUBCHEM_IUPAC_NAME>
(2E,6S,11S)-15-hydroxy-17-methoxy-6,11-dimethyl-12-oxabicyclo[12.4.0]octadeca-1(14),2,15,17-tetraene-7,13-dione

> <PUBCHEM_IUPAC_SYSTEMATIC_NAME>
(2E,6S,11S)-17-methoxy-6,11-dimethyl-15-oxidanyl-12-oxabicyclo[12.4.0]octadeca-1(14),2,15,17-tetraene-7,13-dione

> <PUBCHEM_IUPAC_TRADITIONAL_NAME>
(2E,6S,11S)-15-hydroxy-17-methoxy-6,11-dimethyl-12-oxabicyclo[12.4.0]octadeca-1(14),2,15,17-tetraene-7,13-quinone

> <PUBCHEM_IUPAC_INCHI>
InChI=1S/C20H26O5/c1-13-7-4-5-9-15-11-16(24-3)12-18(22)19(15)20(23)25-14(2)8-6-10-17(13)21/h5,9,11-14,22H,4,6-8,10H2,1-3H3/b9-5+/t13-,14-/m0/s1

> <PUBCHEM_IUPAC_INCHIKEY>
TVXLYIUFQKJBSN-OQOLLCEYSA-N

> <PUBCHEM_XLOGP3_AA>
4.5

> <PUBCHEM_EXACT_MASS>
346.178

> <PUBCHEM_MOLECULAR_FORMULA>
C20H26O5

> <PUBCHEM_MOLECULAR_WEIGHT>
346.423

> <PUBCHEM_OPENEYE_CAN_SMILES>
CC1CCC=CC2=CC(=CC(=C2C(=O)OC(CCCC1=O)C)O)OC

> <PUBCHEM_OPENEYE_ISO_SMILES>
C[C@H]1CC/C=C/C2=CC(=CC(=C2C(=O)O[C@H](CCCC1=O)C)O)OC

> <PUBCHEM_CACTVS_TPSA>
72.8

> <PUBCHEM_MONOISOTOPIC_WEIGHT>
346.178

> <PUBCHEM_TOTAL_CHARGE>
0

> <PUBCHEM_HEAVY_ATOM_COUNT>
25

> <PUBCHEM_ATOM_DEF_STEREO_COUNT>
2

> <PUBCHEM_ATOM_UDEF_STEREO_COUNT>
0

> <PUBCHEM_BOND_DEF_STEREO_COUNT>
1

> <PUBCHEM_BOND_UDEF_STEREO_COUNT>
0

> <PUBCHEM_ISOTOPIC_ATOM_COUNT>
0

> <PUBCHEM_COMPONENT_COUNT>
1

> <PUBCHEM_CACTVS_TAUTO_COUNT>
54

> <PUBCHEM_COORDINATE_TYPE>
1
5
255

> <PUBCHEM_BONDANNOTATIONS>
12  15  5
17  18  8
17  22  8
18  21  8
21  24  8
22  23  8
23  24  8
6  14  6

$$$$
5281576
  -OEChem-11021605012D

 45 46  0     1  0  0  0  0  0999 V2000
    3.4446    1.6907    0.0000 O   0  0  0  0  0  0  0  0  0  0  0  0
    7.7748    3.1907    0.0000 O   0  0  0  0  0  0  0  0  0  0  0  0
    5.1767    1.6907    0.0000 O   0  0  0  0  0  0  0  0  0  0  0  0
    2.5405    0.1938    0.0000 O   0  0  0  0  0  0  0  0  0  0  0  0
    4.2986   -2.8786    0.0000 O   0  0  0  0  0  0  0  0  0  0  0  0
    4.3107    3.1907    0.0000 C   0  0  0  0  0  0  0  0  0  0  0  0
    5.1767    2.6907    0.0000 C   0  0  0  0  0  0  0  0  0  0  0  0
    3.4446    2.6907    0.0000 C   0  0  2  0  0  0  0  0  0  0  0  0
    6.0427    3.1907    0.0000 C   0  0  0  0  0  0  0  0  0  0  0  0
    6.9088    1.6907    0.0000 C   0  0  0  0  0  0  0  0  0  0  0  0
    6.9088    2.6907    0.0000 C   0  0  0  0  0  0  0  0  0  0  0  0
    7.7748    1.1907    0.0000 C   0  0  0  0  0  0  0  0  0  0  0  0
    2.5786    3.1907    0.0000 C   0  0  0  0  0  0  0  0  0  0  0  0
    7.7748    0.1907    0.0000 C   0  0  0  0  0  0  0  0  0  0  0  0
    4.3107    0.1907    0.0000 C   0  0  0  0  0  0  0  0  0  0  0  0
    6.9088   -0.3093    0.0000 C   0  0  0  0  0  0  0  0  0  0  0  0
    5.1767   -0.3093    0.0000 C   0  0  0  0  0  0  0  0  0  0  0  0
    4.3107    1.1907    0.0000 C   0  0  0  0  0  0  0  0  0  0  0  0
    6.0427    0.1907    0.0000 C   0  0  0  0  0  0  0  0  0  0  0  0
    3.4007   -0.3162    0.0000 C   0  0  0  0  0  0  0  0  0  0  0  0
    5.1928   -1.3509    0.0000 C   0  0  0  0  0  0  0  0  0  0  0  0
    4.2947   -1.8786    0.0000 C   0  0  0  0  0  0  0  0  0  0  0  0
    3.3926   -1.3578    0.0000 C   0  0  0  0  0  0  0  0  0  0  0  0
    4.7092    3.6656    0.0000 H   0  0  0  0  0  0  0  0  0  0  0  0
    3.9121    3.6656    0.0000 H   0  0  0  0  0  0  0  0  0  0  0  0
    4.7782    2.2157    0.0000 H   0  0  0  0  0  0  0  0  0  0  0  0
    5.5752    2.2157    0.0000 H   0  0  0  0  0  0  0  0  0  0  0  0
    2.9077    2.3807    0.0000 H   0  0  0  0  0  0  0  0  0  0  0  0
    6.4412    3.6656    0.0000 H   0  0  0  0  0  0  0  0  0  0  0  0
    5.6442    3.6656    0.0000 H   0  0  0  0  0  0  0  0  0  0  0  0
    6.2982    1.7983    0.0000 H   0  0  0  0  0  0  0  0  0  0  0  0
    6.6967    1.1080    0.0000 H   0  0  0  0  0  0  0  0  0  0  0  0
    8.3854    1.0830    0.0000 H   0  0  0  0  0  0  0  0  0  0  0  0
    7.9868    1.7733    0.0000 H   0  0  0  0  0  0  0  0  0  0  0  0
    2.8886    3.7276    0.0000 H   0  0  0  0  0  0  0  0  0  0  0  0
    2.0417    3.5007    0.0000 H   0  0  0  0  0  0  0  0  0  0  0  0
    2.2686    2.6537    0.0000 H   0  0  0  0  0  0  0  0  0  0  0  0
    7.9868   -0.3919    0.0000 H   0  0  0  0  0  0  0  0  0  0  0  0
    8.3854    0.2983    0.0000 H   0  0  0  0  0  0  0  0  0  0  0  0
    6.9088   -0.9293    0.0000 H   0  0  0  0  0  0  0  0  0  0  0  0
    6.0427    0.8107    0.0000 H   0  0  0  0  0  0  0  0  0  0  0  0
    5.7332   -1.6546    0.0000 H   0  0  0  0  0  0  0  0  0  0  0  0
    2.8545   -1.6657    0.0000 H   0  0  0  0  0  0  0  0  0  0  0  0
    2.0000   -0.1100    0.0000 H   0  0  0  0  0  0  0  0  0  0  0  0
    3.7628   -3.1907    0.0000 H   0  0  0  0  0  0  0  0  0  0  0  0
  1  8  1  0  0  0  0
  1 18  1  0  0  0  0
  2 11  2  0  0  0  0
  3 18  2  0  0  0  0
  4 20  1  0  0  0  0
  4 44  1  0  0  0  0
  5 22  1  0  0  0  0
  5 45  1  0  0  0  0
  6  7  1  0  0  0  0
  6  8  1  0  0  0  0
  6 24  1  0  0  0  0
  6 25  1  0  0  0  0
  7  9  1  0  0  0  0
  7 26  1  0  0  0  0
  7 27  1  0  0  0  0
  8 13  1  1  0  0  0
  8 28  1  0  0  0  0
  9 11  1  0  0  0  0
  9 29  1  0  0  0  0
  9 30  1  0  0  0  0
 10 11  1  0  0  0  0
 10 12  1  0  0  0  0
 10 31  1  0  0  0  0
 10 32  1  0  0  0  0
 12 14  1  0  0  0  0
 12 33  1  0  0  0  0
 12 34  1  0  0  0  0
 13 35  1  0  0  0  0
 13 36  1  0  0  0  0
 13 37  1  0  0  0  0
 14 16  1  0  0  0  0
 14 38  1  0  0  0  0
 14 39  1  0  0  0  0
 15 17  2  0  0  0  0
 15 18  1  0  0  0  0
 15 20  1  0  0  0  0
 16 19  2  0  0  0  0
 16 40  1  0  0  0  0
 17 19  1  0  0  0  0
 17 21  1  0  0  0  0
 19 41  1  0  0  0  0
 20 23  2  0  0  0  0
 21 22  2  0  0  0  0
 21 42  1  0  0  0  0
 22 23  1  0  0  0  0
 23 43  1  0  0  0  0
M  END
> <PUBCHEM_COMPOUND_CID>
5281576

> <PUBCHEM_COMPOUND_CANONICALIZED>
1

> <PUBCHEM_CACTVS_COMPLEXITY>
445

> <PUBCHEM_CACTVS_HBOND_ACCEPTOR>
5

> <PUBCHEM_CACTVS_HBOND_DONOR>
2

> <PUBCHEM_CACTVS_ROTATABLE_BOND>
0

> <PUBCHEM_CACTVS_SUBSKEYS>
AAADceB4OAAAAAAAAAAAAAAAAAAAAAAAAAAwAAAAAAAAAAABAAAAGgAACAAADBSgmAIyDoAABgCIAqDSCAACAAAkIAAIiAEGCMgIJzaCNRqCcUAl4BUIuQeI7LzOoAABCAAYAABAAAIQADAAAAAAAAAAAA==

> <PUBCHEM_IUPAC_OPENEYE_NAME>
(2E,11S)-15,17-dihydroxy-11-methyl-12-oxabicyclo[12.4.0]octadeca-1(14),2,15,17-tetraene-7,13-dione

> <PUBCHEM_IUPAC_CAS_NAME>
(2E,11S)-15,17-dihydroxy-11-methyl-12-oxabicyclo[12.4.0]octadeca-1(14),2,15,17-tetraene-7,13-dione

> <PUBCHEM_IUPAC_NAME>
(2E,11S)-15,17-dihydroxy-11-methyl-12-oxabicyclo[12.4.0]octadeca-1(14),2,15,17-tetraene-7,13-dione

> <PUBCHEM_IUPAC_SYSTEMATIC_NAME>
(2E,11S)-11-methyl-15,17-bis(oxidanyl)-12-oxabicyclo[12.4.0]octadeca-1(14),2,15,17-tetraene-7,13-dione

> <PUBCHEM_IUPAC_TRADITIONAL_NAME>
(2E,11S)-15,17-dihydroxy-11-methyl-12-oxabicyclo[12.4.0]octadeca-1(14),2,15,17-tetraene-7,13-quinone

> <PUBCHEM_IUPAC_INCHI>
InChI=1S/C18H22O5/c1-12-6-5-9-14(19)8-4-2-3-7-13-10-15(20)11-16(21)17(13)18(22)23-12/h3,7,10-12,20-21H,2,4-6,8-9H2,1H3/b7-3+/t12-/m0/s1

> <PUBCHEM_IUPAC_INCHIKEY>
MBMQEIFVQACCCH-QBODLPLBSA-N

> <PUBCHEM_XLOGP3_AA>
3.6

> <PUBCHEM_EXACT_MASS>
318.147

> <PUBCHEM_MOLECULAR_FORMULA>
C18H22O5

> <PUBCHEM_MOLECULAR_WEIGHT>
318.369

> <PUBCHEM_OPENEYE_CAN_SMILES>
CC1CCCC(=O)CCCC=CC2=CC(=CC(=C2C(=O)O1)O)O

> <PUBCHEM_OPENEYE_ISO_SMILES>
C[C@H]1CCCC(=O)CCC/C=C/C2=CC(=CC(=C2C(=O)O1)O)O

> <PUBCHEM_CACTVS_TPSA>
83.8

> <PUBCHEM_MONOISOTOPIC_WEIGHT>
318.147

> <PUBCHEM_TOTAL_CHARGE>
0

> <PUBCHEM_HEAVY_ATOM_COUNT>
23

> <PUBCHEM_ATOM_DEF_STEREO_COUNT>
1

> <PUBCHEM_ATOM_UDEF_STEREO_COUNT>
0

> <PUBCHEM_BOND_DEF_STEREO_COUNT>
1

> <PUBCHEM_BOND_UDEF_STEREO_COUNT>
0

> <PUBCHEM_ISOTOPIC_ATOM_COUNT>
0

> <PUBCHEM_COMPONENT_COUNT>
1

> <PUBCHEM_CACTVS_TAUTO_COUNT>
111

> <PUBCHEM_COORDINATE_TYPE>
1
5
255

> <PUBCHEM_BONDANNOTATIONS>
15  17  8
15  20  8
17  21  8
20  23  8
21  22  8
22  23  8
8  13  5

$$$$
44564084
  -OEChem-11021605012D

 56 57  0     1  0  0  0  0  0999 V2000
    8.1060    2.9763    0.0000 O   0  0  0  0  0  0  0  0  0  0  0  0
    3.7759    1.4763    0.0000 O   0  0  0  0  0  0  0  0  0  0  0  0
    5.5080    1.4763    0.0000 O   0  0  0  0  0  0  0  0  0  0  0  0
    2.8718   -0.0206    0.0000 O   0  0  0  0  0  0  0  0  0  0  0  0
    4.6298   -3.0930    0.0000 O   0  0  0  0  0  0  0  0  0  0  0  0
    7.2400    1.4763    0.0000 C   0  0  2  0  0  0  0  0  0  0  0  0
    7.2400    2.4763    0.0000 C   0  0  1  0  0  0  0  0  0  0  0  0
    6.3740    2.9763    0.0000 C   0  0  0  0  0  0  0  0  0  0  0  0
    8.1060    0.9763    0.0000 C   0  0  0  0  0  0  0  0  0  0  0  0
    5.5080    2.4763    0.0000 C   0  0  0  0  0  0  0  0  0  0  0  0
    4.6419    2.9763    0.0000 C   0  0  0  0  0  0  0  0  0  0  0  0
    6.2400    1.4763    0.0000 C   0  0  0  0  0  0  0  0  0  0  0  0
    8.1060   -0.0237    0.0000 C   0  0  0  0  0  0  0  0  0  0  0  0
    3.7759    2.4763    0.0000 C   0  0  2  0  0  0  0  0  0  0  0  0
    7.2400   -0.5237    0.0000 C   0  0  0  0  0  0  0  0  0  0  0  0
    2.9099    2.9763    0.0000 C   0  0  0  0  0  0  0  0  0  0  0  0
    6.3740   -0.0237    0.0000 C   0  0  0  0  0  0  0  0  0  0  0  0
    5.5080   -0.5237    0.0000 C   0  0  0  0  0  0  0  0  0  0  0  0
    4.6419   -0.0237    0.0000 C   0  0  0  0  0  0  0  0  0  0  0  0
    4.6419    0.9763    0.0000 C   0  0  0  0  0  0  0  0  0  0  0  0
    3.7319   -0.5306    0.0000 C   0  0  0  0  0  0  0  0  0  0  0  0
    5.5240   -1.5652    0.0000 C   0  0  0  0  0  0  0  0  0  0  0  0
    4.6260   -2.0930    0.0000 C   0  0  0  0  0  0  0  0  0  0  0  0
    3.7239   -1.5722    0.0000 C   0  0  0  0  0  0  0  0  0  0  0  0
    2.0000   -0.5105    0.0000 C   0  0  0  0  0  0  0  0  0  0  0  0
    3.7658   -3.5963    0.0000 C   0  0  0  0  0  0  0  0  0  0  0  0
    7.0795    0.8774    0.0000 H   0  0  0  0  0  0  0  0  0  0  0  0
    7.2400    3.0963    0.0000 H   0  0  0  0  0  0  0  0  0  0  0  0
    6.7725    3.4512    0.0000 H   0  0  0  0  0  0  0  0  0  0  0  0
    5.9755    3.4512    0.0000 H   0  0  0  0  0  0  0  0  0  0  0  0
    8.7166    0.8686    0.0000 H   0  0  0  0  0  0  0  0  0  0  0  0
    8.3181    1.5589    0.0000 H   0  0  0  0  0  0  0  0  0  0  0  0
    5.1094    2.0014    0.0000 H   0  0  0  0  0  0  0  0  0  0  0  0
    5.9065    2.0014    0.0000 H   0  0  0  0  0  0  0  0  0  0  0  0
    5.0405    3.4512    0.0000 H   0  0  0  0  0  0  0  0  0  0  0  0
    4.2434    3.4512    0.0000 H   0  0  0  0  0  0  0  0  0  0  0  0
    6.2400    2.0963    0.0000 H   0  0  0  0  0  0  0  0  0  0  0  0
    5.6200    1.4764    0.0000 H   0  0  0  0  0  0  0  0  0  0  0  0
    6.2400    0.8563    0.0000 H   0  0  0  0  0  0  0  0  0  0  0  0
    8.3181   -0.6063    0.0000 H   0  0  0  0  0  0  0  0  0  0  0  0
    8.7166    0.0840    0.0000 H   0  0  0  0  0  0  0  0  0  0  0  0
    3.2390    2.1663    0.0000 H   0  0  0  0  0  0  0  0  0  0  0  0
    8.1060    3.5963    0.0000 H   0  0  0  0  0  0  0  0  0  0  0  0
    7.2400   -1.1437    0.0000 H   0  0  0  0  0  0  0  0  0  0  0  0
    3.2199    3.5132    0.0000 H   0  0  0  0  0  0  0  0  0  0  0  0
    2.3730    3.2863    0.0000 H   0  0  0  0  0  0  0  0  0  0  0  0
    2.5999    2.4394    0.0000 H   0  0  0  0  0  0  0  0  0  0  0  0
    6.3740    0.5963    0.0000 H   0  0  0  0  0  0  0  0  0  0  0  0
    6.0645   -1.8690    0.0000 H   0  0  0  0  0  0  0  0  0  0  0  0
    3.1858   -1.8801    0.0000 H   0  0  0  0  0  0  0  0  0  0  0  0
    1.6962    0.0300    0.0000 H   0  0  0  0  0  0  0  0  0  0  0  0
    1.4595   -0.8143    0.0000 H   0  0  0  0  0  0  0  0  0  0  0  0
    2.3038   -1.0510    0.0000 H   0  0  0  0  0  0  0  0  0  0  0  0
    3.4537   -3.0606    0.0000 H   0  0  0  0  0  0  0  0  0  0  0  0
    3.2300   -3.9084    0.0000 H   0  0  0  0  0  0  0  0  0  0  0  0
    4.0778   -4.1320    0.0000 H   0  0  0  0  0  0  0  0  0  0  0  0
  7  1  1  1  0  0  0
  1 43  1  0  0  0  0
  2 14  1  0  0  0  0
  2 20  1  0  0  0  0
  3 20  2  0  0  0  0
  4 21  1  0  0  0  0
  4 25  1  0  0  0  0
  5 23  1  0  0  0  0
  5 26  1  0  0  0  0
  6  7  1  0  0  0  0
  6  9  1  0  0  0  0
  6 12  1  6  0  0  0
  6 27  1  0  0  0  0
  7  8  1  0  0  0  0
  7 28  1  0  0  0  0
  8 10  1  0  0  0  0
  8 29  1  0  0  0  0
  8 30  1  0  0  0  0
  9 13  1  0  0  0  0
  9 31  1  0  0  0  0
  9 32  1  0  0  0  0
 10 11  1  0  0  0  0
 10 33  1  0  0  0  0
 10 34  1  0  0  0  0
 11 14  1  0  0  0  0
 11 35  1  0  0  0  0
 11 36  1  0  0  0  0
 12 37  1  0  0  0  0
 12 38  1  0  0  0  0
 12 39  1  0  0  0  0
 13 15  1  0  0  0  0
 13 40  1  0  0  0  0
 13 41  1  0  0  0  0
 14 16  1  1  0  0  0
 14 42  1  0  0  0  0
 15 17  2  0  0  0  0
 15 44  1  0  0  0  0
 16 45  1  0  0  0  0
 16 46  1  0  0  0  0
 16 47  1  0  0  0  0
 17 18  1  0  0  0  0
 17 48  1  0  0  0  0
 18 19  2  0  0  0  0
 18 22  1  0  0  0  0
 19 20  1  0  0  0  0
 19 21  1  0  0  0  0
 21 24  2  0  0  0  0
 22 23  2  0  0  0  0
 22 49  1  0  0  0  0
 23 24  1  0  0  0  0
 24 50  1  0  0  0  0
 25 51  1  0  0  0  0
 25 52  1  0  0  0  0
 25 53  1  0  0  0  0
 26 54  1  0  0  0  0
 26 55  1  0  0  0  0
 26 56  1  0  0  0  0
M  END
> <PUBCHEM_COMPOUND_CID>
44564084

> <PUBCHEM_COMPOUND_CANONICALIZED>
1

> <PUBCHEM_CACTVS_COMPLEXITY>
463

> <PUBCHEM_CACTVS_HBOND_ACCEPTOR>
5

> <PUBCHEM_CACTVS_HBOND_DONOR>
1

> <PUBCHEM_CACTVS_ROTATABLE_BOND>
2

> <PUBCHEM_CACTVS_SUBSKEYS>
AAADceB4OAAAAAAAAAAAAAAAAAAAAAAAAAAwAAAAAAAAAAABAAAAGgAACAAADRSgmAIyDoAABgCIAiDSCAACCAAkIAAIiAEGCMgMNzaENRqCcWAl4BUIqQeI7PzOoAABCAAYAABAAAIQADAAAAAAAAAAAA==

> <PUBCHEM_IUPAC_OPENEYE_NAME>
(2E,6S,7R,11S)-7-hydroxy-15,17-dimethoxy-6,11-dimethyl-12-oxabicyclo[12.4.0]octadeca-1(14),2,15,17-tetraen-13-one

> <PUBCHEM_IUPAC_CAS_NAME>
(2E,6S,7R,11S)-7-hydroxy-15,17-dimethoxy-6,11-dimethyl-12-oxabicyclo[12.4.0]octadeca-1(14),2,15,17-tetraen-13-one

> <PUBCHEM_IUPAC_NAME>
(2E,6S,7R,11S)-7-hydroxy-15,17-dimethoxy-6,11-dimethyl-12-oxabicyclo[12.4.0]octadeca-1(14),2,15,17-tetraen-13-one

> <PUBCHEM_IUPAC_SYSTEMATIC_NAME>
(2E,6S,7R,11S)-15,17-dimethoxy-6,11-dimethyl-7-oxidanyl-12-oxabicyclo[12.4.0]octadeca-1(14),2,15,17-tetraen-13-one

> <PUBCHEM_IUPAC_TRADITIONAL_NAME>
(2E,6S,7R,11S)-7-hydroxy-15,17-dimethoxy-6,11-dimethyl-12-oxabicyclo[12.4.0]octadeca-1(14),2,15,17-tetraen-13-one

> <PUBCHEM_IUPAC_INCHI>
InChI=1S/C21H30O5/c1-14-8-5-6-10-16-12-17(24-3)13-19(25-4)20(16)21(23)26-15(2)9-7-11-18(14)22/h6,10,12-15,18,22H,5,7-9,11H2,1-4H3/b10-6+/t14-,15-,18+/m0/s1

> <PUBCHEM_IUPAC_INCHIKEY>
NDOUUJAOZBANGT-IAMJVPPYSA-N

> <PUBCHEM_XLOGP3_AA>
4.6

> <PUBCHEM_EXACT_MASS>
362.209

> <PUBCHEM_MOLECULAR_FORMULA>
C21H30O5

> <PUBCHEM_MOLECULAR_WEIGHT>
362.466

> <PUBCHEM_OPENEYE_CAN_SMILES>
CC1CCC=CC2=CC(=CC(=C2C(=O)OC(CCCC1O)C)OC)OC

> <PUBCHEM_OPENEYE_ISO_SMILES>
C[C@H]1CC/C=C/C2=CC(=CC(=C2C(=O)O[C@H](CCC[C@H]1O)C)OC)OC

> <PUBCHEM_CACTVS_TPSA>
65

> <PUBCHEM_MONOISOTOPIC_WEIGHT>
362.209

> <PUBCHEM_TOTAL_CHARGE>
0

> <PUBCHEM_HEAVY_ATOM_COUNT>
26

> <PUBCHEM_ATOM_DEF_STEREO_COUNT>
3

> <PUBCHEM_ATOM_UDEF_STEREO_COUNT>
0

> <PUBCHEM_BOND_DEF_STEREO_COUNT>
1

> <PUBCHEM_BOND_UDEF_STEREO_COUNT>
0

> <PUBCHEM_ISOTOPIC_ATOM_COUNT>
0

> <PUBCHEM_COMPONENT_COUNT>
1

> <PUBCHEM_CACTVS_TAUTO_COUNT>
4

> <PUBCHEM_COORDINATE_TYPE>
1
5
255

> <PUBCHEM_BONDANNOTATIONS>
7  1  5
14  16  5
18  19  8
18  22  8
19  21  8
21  24  8
22  23  8
23  24  8
6  12  6

$$$$
24896769
  -OEChem-11021605012D

 37 40  0     0  0  0  0  0  0999 V2000
    2.0000   -2.5172    0.0000 Cl  0  0  0  0  0  0  0  0  0  0  0  0
    5.4641   -2.5172    0.0000 Cl  0  0  0  0  0  0  0  0  0  0  0  0
    7.2124    1.5374    0.0000 Cl  0  0  0  0  0  0  0  0  0  0  0  0
    5.4458    4.5172    0.0000 F   0  0  0  0  0  0  0  0  0  0  0  0
    2.0000   -1.5172    0.0000 O   0  5  0  0  0  0  0  0  0  0  0  0
    2.8660   -1.0172    0.0000 N   0  3  0  0  0  0  0  0  0  0  0  0
    5.4920   -1.5519    0.0000 N   0  0  0  0  0  0  0  0  0  0  0  0
    4.5981   -0.0172    0.0000 C   0  0  0  0  0  0  0  0  0  0  0  0
    4.5981   -1.0172    0.0000 C   0  0  0  0  0  0  0  0  0  0  0  0
    3.7320   -1.5172    0.0000 C   0  0  0  0  0  0  0  0  0  0  0  0
    5.4920    0.5175    0.0000 C   0  0  0  0  0  0  0  0  0  0  0  0
    3.7320   -2.5172    0.0000 C   0  0  0  0  0  0  0  0  0  0  0  0
    3.7320    0.4828    0.0000 C   0  0  0  0  0  0  0  0  0  0  0  0
    5.4804    1.5174    0.0000 C   0  0  0  0  0  0  0  0  0  0  0  0
    6.3981    0.0036    0.0000 C   0  0  0  0  0  0  0  0  0  0  0  0
    2.8660   -0.0172    0.0000 C   0  0  0  0  0  0  0  0  0  0  0  0
    6.3981   -1.0380    0.0000 C   0  0  0  0  0  0  0  0  0  0  0  0
    2.8660   -3.0172    0.0000 C   0  0  0  0  0  0  0  0  0  0  0  0
    4.5981   -3.0172    0.0000 C   0  0  0  0  0  0  0  0  0  0  0  0
    6.3406    2.0274    0.0000 C   0  0  0  0  0  0  0  0  0  0  0  0
    4.6087    2.0074    0.0000 C   0  0  0  0  0  0  0  0  0  0  0  0
    2.8660   -4.0172    0.0000 C   0  0  0  0  0  0  0  0  0  0  0  0
    4.5981   -4.0172    0.0000 C   0  0  0  0  0  0  0  0  0  0  0  0
    6.3291    3.0273    0.0000 C   0  0  0  0  0  0  0  0  0  0  0  0
    4.5971    3.0073    0.0000 C   0  0  0  0  0  0  0  0  0  0  0  0
    3.7320   -4.5172    0.0000 C   0  0  0  0  0  0  0  0  0  0  0  0
    5.4573    3.5173    0.0000 C   0  0  0  0  0  0  0  0  0  0  0  0
    3.7320    1.1028    0.0000 H   0  0  0  0  0  0  0  0  0  0  0  0
    6.9338    0.3157    0.0000 H   0  0  0  0  0  0  0  0  0  0  0  0
    2.3291    0.2928    0.0000 H   0  0  0  0  0  0  0  0  0  0  0  0
    6.9338   -1.3501    0.0000 H   0  0  0  0  0  0  0  0  0  0  0  0
    4.0754    1.6912    0.0000 H   0  0  0  0  0  0  0  0  0  0  0  0
    2.3291   -4.3272    0.0000 H   0  0  0  0  0  0  0  0  0  0  0  0
    5.1350   -4.3272    0.0000 H   0  0  0  0  0  0  0  0  0  0  0  0
    6.8624    3.3435    0.0000 H   0  0  0  0  0  0  0  0  0  0  0  0
    4.0567    3.3110    0.0000 H   0  0  0  0  0  0  0  0  0  0  0  0
    3.7320   -5.1372    0.0000 H   0  0  0  0  0  0  0  0  0  0  0  0
  1 18  1  0  0  0  0
  2 19  1  0  0  0  0
  3 20  1  0  0  0  0
  4 27  1  0  0  0  0
  5  6  1  0  0  0  0
  6 10  2  0  0  0  0
  6 16  1  0  0  0  0
  7  9  2  0  0  0  0
  7 17  1  0  0  0  0
  8  9  1  0  0  0  0
  8 11  2  0  0  0  0
  8 13  1  0  0  0  0
  9 10  1  0  0  0  0
 10 12  1  0  0  0  0
 11 14  1  0  0  0  0
 11 15  1  0  0  0  0
 12 18  2  0  0  0  0
 12 19  1  0  0  0  0
 13 16  2  0  0  0  0
 13 28  1  0  0  0  0
 14 20  2  0  0  0  0
 14 21  1  0  0  0  0
 15 17  2  0  0  0  0
 15 29  1  0  0  0  0
 16 30  1  0  0  0  0
 17 31  1  0  0  0  0
 18 22  1  0  0  0  0
 19 23  2  0  0  0  0
 20 24  1  0  0  0  0
 21 25  2  0  0  0  0
 21 32  1  0  0  0  0
 22 26  2  0  0  0  0
 22 33  1  0  0  0  0
 23 26  1  0  0  0  0
 23 34  1  0  0  0  0
 24 27  2  0  0  0  0
 24 35  1  0  0  0  0
 25 27  1  0  0  0  0
 25 36  1  0  0  0  0
 26 37  1  0  0  0  0
M  CHG  2   5  -1   6   1
M  END
> <PUBCHEM_COMPOUND_CID>
24896769

> <PUBCHEM_COMPOUND_CANONICALIZED>
1

> <PUBCHEM_CACTVS_COMPLEXITY>
506

> <PUBCHEM_CACTVS_HBOND_ACCEPTOR>
3

> <PUBCHEM_CACTVS_HBOND_DONOR>
0

> <PUBCHEM_CACTVS_ROTATABLE_BOND>
2

> <PUBCHEM_CACTVS_SUBSKEYS>
AAADccB7IQAGAAAAAAAAAAAAAAAAAAAAAAA8eIEAAAAAAACx/AAAHQIEAAAADArBHiw8wPIYEACgAzRnRACCgCQxFyAo2CA4dpoIYOLBk5GUIAhggIDIyAcQgMAOgAAAAACBAAAAAAAAAQIAAAAAAAAAAA==

> <PUBCHEM_IUPAC_OPENEYE_NAME>
4-(2-chloro-4-fluoro-phenyl)-8-(2,6-dichlorophenyl)-7-oxido-1,7-naphthyridin-7-ium

> <PUBCHEM_IUPAC_CAS_NAME>
4-(2-chloro-4-fluorophenyl)-8-(2,6-dichlorophenyl)-7-oxido-1,7-naphthyridin-7-ium

> <PUBCHEM_IUPAC_NAME>
4-(2-chloro-4-fluorophenyl)-8-(2,6-dichlorophenyl)-7-oxido-1,7-naphthyridin-7-ium

> <PUBCHEM_IUPAC_SYSTEMATIC_NAME>
8-[2,6-bis(chloranyl)phenyl]-4-(2-chloranyl-4-fluoranyl-phenyl)-7-oxidanidyl-1,7-naphthyridin-7-ium

> <PUBCHEM_IUPAC_TRADITIONAL_NAME>
4-(2-chloro-4-fluoro-phenyl)-8-(2,6-dichlorophenyl)-7-oxido-1,7-naphthyridin-7-ium

> <PUBCHEM_IUPAC_INCHI>
InChI=1S/C20H10Cl3FN2O/c21-15-2-1-3-16(22)18(15)20-19-14(7-9-26(20)27)12(6-8-25-19)13-5-4-11(24)10-17(13)23/h1-10H

> <PUBCHEM_IUPAC_INCHIKEY>
AUZOBOALIFKXNA-UHFFFAOYSA-N

> <PUBCHEM_XLOGP3_AA>
5.4

> <PUBCHEM_EXACT_MASS>
417.984

> <PUBCHEM_MOLECULAR_FORMULA>
C20H10Cl3FN2O

> <PUBCHEM_MOLECULAR_WEIGHT>
419.661

> <PUBCHEM_OPENEYE_CAN_SMILES>
C1=CC(=C(C(=C1)Cl)C2=[N+](C=CC3=C(C=CN=C32)C4=C(C=C(C=C4)F)Cl)[O-])Cl

> <PUBCHEM_OPENEYE_ISO_SMILES>
C1=CC(=C(C(=C1)Cl)C2=[N+](C=CC3=C(C=CN=C32)C4=C(C=C(C=C4)F)Cl)[O-])Cl

> <PUBCHEM_CACTVS_TPSA>
38.4

> <PUBCHEM_MONOISOTOPIC_WEIGHT>
417.984

> <PUBCHEM_TOTAL_CHARGE>
0

> <PUBCHEM_HEAVY_ATOM_COUNT>
27

> <PUBCHEM_ATOM_DEF_STEREO_COUNT>
0

> <PUBCHEM_ATOM_UDEF_STEREO_COUNT>
0

> <PUBCHEM_BOND_DEF_STEREO_COUNT>
0

> <PUBCHEM_BOND_UDEF_STEREO_COUNT>
0

> <PUBCHEM_ISOTOPIC_ATOM_COUNT>
0

> <PUBCHEM_COMPONENT_COUNT>
1

> <PUBCHEM_CACTVS_TAUTO_COUNT>
1

> <PUBCHEM_COORDINATE_TYPE>
1
5
255

> <PUBCHEM_BONDANNOTATIONS>
11  15  8
12  18  8
12  19  8
13  16  8
14  20  8
14  21  8
15  17  8
18  22  8
19  23  8
20  24  8
21  25  8
22  26  8
23  26  8
24  27  8
25  27  8
6  10  8
6  16  8
7  17  8
7  9  8
8  11  8
8  13  8
8  9  8
9  10  8

$$$$
57403371
  -OEChem-11021605012D

 51 54  0     1  0  0  0  0  0999 V2000
    5.4706    1.1342    0.0000 F   0  0  0  0  0  0  0  0  0  0  0  0
    7.2467   -1.8726    0.0000 O   0  0  0  0  0  0  0  0  0  0  0  0
    2.8828   -1.3542    0.0000 O   0  0  0  0  0  0  0  0  0  0  0  0
    2.8363   -4.3348    0.0000 O   0  0  0  0  0  0  0  0  0  0  0  0
    2.0000   -2.8181    0.0000 O   0  0  0  0  0  0  0  0  0  0  0  0
    5.4546   -2.9073    0.0000 N   0  0  0  0  0  0  0  0  0  0  0  0
    7.2027    0.1342    0.0000 N   0  0  0  0  0  0  0  0  0  0  0  0
    3.7386    0.1342    0.0000 N   0  0  0  0  0  0  0  0  0  0  0  0
    9.8008    2.6342    0.0000 N   0  0  0  0  0  0  0  0  0  0  0  0
    6.3526   -3.4351    0.0000 C   0  0  2  0  0  0  0  0  0  0  0  0
    5.4706   -1.8658    0.0000 C   0  0  0  0  0  0  0  0  0  0  0  0
    7.2547   -2.9142    0.0000 C   0  0  0  0  0  0  0  0  0  0  0  0
    6.3367   -1.3658    0.0000 C   0  0  0  0  0  0  0  0  0  0  0  0
    4.6046   -1.3658    0.0000 C   0  0  0  0  0  0  0  0  0  0  0  0
    6.3367   -0.3658    0.0000 C   0  0  0  0  0  0  0  0  0  0  0  0
    4.5775   -3.3701    0.0000 C   0  0  0  0  0  0  0  0  0  0  0  0
    6.3488   -4.4351    0.0000 C   0  0  0  0  0  0  0  0  0  0  0  0
    4.6046   -0.3658    0.0000 C   0  0  0  0  0  0  0  0  0  0  0  0
    3.7452   -1.8606    0.0000 C   0  0  0  0  0  0  0  0  0  0  0  0
    3.7317   -2.8522    0.0000 C   0  0  0  0  0  0  0  0  0  0  0  0
    5.4706    0.1342    0.0000 C   0  0  0  0  0  0  0  0  0  0  0  0
    7.2027    1.1342    0.0000 C   0  0  0  0  0  0  0  0  0  0  0  0
    8.0687    1.6342    0.0000 C   0  0  0  0  0  0  0  0  0  0  0  0
    8.0687    2.6342    0.0000 C   0  0  0  0  0  0  0  0  0  0  0  0
    2.8560   -3.3350    0.0000 C   0  0  0  0  0  0  0  0  0  0  0  0
    8.9347    3.1342    0.0000 C   0  0  0  0  0  0  0  0  0  0  0  0
    8.9347    4.1342    0.0000 C   0  0  0  0  0  0  0  0  0  0  0  0
    9.8008    4.6342    0.0000 C   0  0  0  0  0  0  0  0  0  0  0  0
   10.6668    3.1342    0.0000 C   0  0  0  0  0  0  0  0  0  0  0  0
   10.6668    4.1342    0.0000 C   0  0  0  0  0  0  0  0  0  0  0  0
    5.8139   -3.7420    0.0000 H   0  0  0  0  0  0  0  0  0  0  0  0
    7.4682   -3.4963    0.0000 H   0  0  0  0  0  0  0  0  0  0  0  0
    7.8647   -2.8034    0.0000 H   0  0  0  0  0  0  0  0  0  0  0  0
    4.5576   -3.9897    0.0000 H   0  0  0  0  0  0  0  0  0  0  0  0
    5.7288   -4.4327    0.0000 H   0  0  0  0  0  0  0  0  0  0  0  0
    6.3464   -5.0550    0.0000 H   0  0  0  0  0  0  0  0  0  0  0  0
    6.9688   -4.4374    0.0000 H   0  0  0  0  0  0  0  0  0  0  0  0
    7.7396   -0.1758    0.0000 H   0  0  0  0  0  0  0  0  0  0  0  0
    6.9906    1.7168    0.0000 H   0  0  0  0  0  0  0  0  0  0  0  0
    6.5921    1.0265    0.0000 H   0  0  0  0  0  0  0  0  0  0  0  0
    8.2808    1.0516    0.0000 H   0  0  0  0  0  0  0  0  0  0  0  0
    8.6793    1.7419    0.0000 H   0  0  0  0  0  0  0  0  0  0  0  0
    3.7386    0.7542    0.0000 H   0  0  0  0  0  0  0  0  0  0  0  0
    3.2016   -0.1758    0.0000 H   0  0  0  0  0  0  0  0  0  0  0  0
    7.8567    3.2168    0.0000 H   0  0  0  0  0  0  0  0  0  0  0  0
    7.4581    2.5265    0.0000 H   0  0  0  0  0  0  0  0  0  0  0  0
    8.3978    4.4442    0.0000 H   0  0  0  0  0  0  0  0  0  0  0  0
    2.2934   -4.6342    0.0000 H   0  0  0  0  0  0  0  0  0  0  0  0
    9.8008    5.2542    0.0000 H   0  0  0  0  0  0  0  0  0  0  0  0
   11.2037    2.8242    0.0000 H   0  0  0  0  0  0  0  0  0  0  0  0
   11.2037    4.4442    0.0000 H   0  0  0  0  0  0  0  0  0  0  0  0
  1 21  1  0  0  0  0
  2 12  1  0  0  0  0
  2 13  1  0  0  0  0
  3 19  2  0  0  0  0
  4 25  1  0  0  0  0
  4 48  1  0  0  0  0
  5 25  2  0  0  0  0
  6 10  1  0  0  0  0
  6 11  1  0  0  0  0
  6 16  1  0  0  0  0
  7 15  1  0  0  0  0
  7 22  1  0  0  0  0
  7 38  1  0  0  0  0
  8 18  1  0  0  0  0
  8 43  1  0  0  0  0
  8 44  1  0  0  0  0
  9 26  1  0  0  0  0
  9 29  2  0  0  0  0
 10 12  1  0  0  0  0
 10 17  1  6  0  0  0
 10 31  1  0  0  0  0
 11 13  2  0  0  0  0
 11 14  1  0  0  0  0
 12 32  1  0  0  0  0
 12 33  1  0  0  0  0
 13 15  1  0  0  0  0
 14 18  2  0  0  0  0
 14 19  1  0  0  0  0
 15 21  2  0  0  0  0
 16 20  2  0  0  0  0
 16 34  1  0  0  0  0
 17 35  1  0  0  0  0
 17 36  1  0  0  0  0
 17 37  1  0  0  0  0
 18 21  1  0  0  0  0
 19 20  1  0  0  0  0
 20 25  1  0  0  0  0
 22 23  1  0  0  0  0
 22 39  1  0  0  0  0
 22 40  1  0  0  0  0
 23 24  1  0  0  0  0
 23 41  1  0  0  0  0
 23 42  1  0  0  0  0
 24 26  1  0  0  0  0
 24 45  1  0  0  0  0
 24 46  1  0  0  0  0
 26 27  2  0  0  0  0
 27 28  1  0  0  0  0
 27 47  1  0  0  0  0
 28 30  2  0  0  0  0
 28 49  1  0  0  0  0
 29 30  1  0  0  0  0
 29 50  1  0  0  0  0
 30 51  1  0  0  0  0
M  END
> <PUBCHEM_COMPOUND_CID>
57403371

> <PUBCHEM_COMPOUND_CANONICALIZED>
1

> <PUBCHEM_CACTVS_COMPLEXITY>
705

> <PUBCHEM_CACTVS_HBOND_ACCEPTOR>
9

> <PUBCHEM_CACTVS_HBOND_DONOR>
3

> <PUBCHEM_CACTVS_ROTATABLE_BOND>
6

> <PUBCHEM_CACTVS_SUBSKEYS>
AAADceB7uQAAAAAAAAAAAAAAAAAAAAAAAAA8WIEAAAAAAACxwAAAHwAQCAAADCzhng4+zpPIFgCoA7T3TACCiCA1IiAI2KE9bNgOJv7M9duHeajk8BHY+ce62bOeCEABAAQCEAAQgAIACAQgAAAAAAAAAA==

> <PUBCHEM_IUPAC_INCHI>
InChI=1S/C21H21FN4O4/c1-11-10-30-20-17(25-8-4-6-12-5-2-3-7-24-12)15(22)16(23)14-18(20)26(11)9-13(19(14)27)21(28)29/h2-3,5,7,9,11,25H,4,6,8,10,23H2,1H3,(H,28,29)/t11-/m0/s1

> <PUBCHEM_IUPAC_INCHIKEY>
FUXRIKOZGPOPDN-NSHDSACASA-N

> <PUBCHEM_XLOGP3_AA>
2.8

> <PUBCHEM_EXACT_MASS>
412.155

> <PUBCHEM_MOLECULAR_FORMULA>
C21H21FN4O4

> <PUBCHEM_MOLECULAR_WEIGHT>
412.421

> <PUBCHEM_OPENEYE_CAN_SMILES>
CC1COC2=C(C(=C(C3=C2N1C=C(C3=O)C(=O)O)N)F)NCCCC4=CC=CC=N4

> <PUBCHEM_OPENEYE_ISO_SMILES>
C[C@H]1COC2=C(C(=C(C3=C2N1C=C(C3=O)C(=O)O)N)F)NCCCC4=CC=CC=N4

> <PUBCHEM_CACTVS_TPSA>
118

> <PUBCHEM_MONOISOTOPIC_WEIGHT>
412.155

> <PUBCHEM_TOTAL_CHARGE>
0

> <PUBCHEM_HEAVY_ATOM_COUNT>
30

> <PUBCHEM_ATOM_DEF_STEREO_COUNT>
1

> <PUBCHEM_ATOM_UDEF_STEREO_COUNT>
0

> <PUBCHEM_BOND_DEF_STEREO_COUNT>
0

> <PUBCHEM_BOND_UDEF_STEREO_COUNT>
0

> <PUBCHEM_ISOTOPIC_ATOM_COUNT>
0

> <PUBCHEM_COMPONENT_COUNT>
1

> <PUBCHEM_CACTVS_TAUTO_COUNT>
18

> <PUBCHEM_COORDINATE_TYPE>
1
5
255

> <PUBCHEM_BONDANNOTATIONS>
10  17  6
11  13  8
11  14  8
13  15  8
14  18  8
14  19  8
15  21  8
16  20  8
18  21  8
19  20  8
26  27  8
27  28  8
28  30  8
29  30  8
6  11  8
6  16  8
9  26  8
9  29  8

$$$$
56945119
  -OEChem-11021605012D

 49 52  0     1  0  0  0  0  0999 V2000
    5.4903    1.0346    0.0000 F   0  0  0  0  0  0  0  0  0  0  0  0
    7.2664   -1.9722    0.0000 O   0  0  0  0  0  0  0  0  0  0  0  0
    2.9025   -1.4538    0.0000 O   0  0  0  0  0  0  0  0  0  0  0  0
    5.4743   -3.0069    0.0000 N   0  0  0  0  0  0  0  0  0  0  0  0
    7.2224    0.0346    0.0000 N   0  0  0  0  0  0  0  0  0  0  0  0
    3.7583    0.0346    0.0000 N   0  0  0  0  0  0  0  0  0  0  0  0
    9.8204    2.5346    0.0000 N   0  0  0  0  0  0  0  0  0  0  0  0
    2.0000   -3.9175    0.0000 N   0  0  0  0  0  0  0  0  0  0  0  0
    6.3723   -3.5346    0.0000 C   0  0  2  0  0  0  0  0  0  0  0  0
    5.4903   -1.9654    0.0000 C   0  0  0  0  0  0  0  0  0  0  0  0
    7.2744   -3.0138    0.0000 C   0  0  0  0  0  0  0  0  0  0  0  0
    6.3564   -1.4654    0.0000 C   0  0  0  0  0  0  0  0  0  0  0  0
    4.6243   -1.4654    0.0000 C   0  0  0  0  0  0  0  0  0  0  0  0
    6.3564   -0.4654    0.0000 C   0  0  0  0  0  0  0  0  0  0  0  0
    6.3684   -4.5346    0.0000 C   0  0  0  0  0  0  0  0  0  0  0  0
    4.5972   -3.4696    0.0000 C   0  0  0  0  0  0  0  0  0  0  0  0
    4.6243   -0.4654    0.0000 C   0  0  0  0  0  0  0  0  0  0  0  0
    5.4903    0.0346    0.0000 C   0  0  0  0  0  0  0  0  0  0  0  0
    3.7648   -1.9602    0.0000 C   0  0  0  0  0  0  0  0  0  0  0  0
    3.7514   -2.9518    0.0000 C   0  0  0  0  0  0  0  0  0  0  0  0
    7.2224    1.0346    0.0000 C   0  0  0  0  0  0  0  0  0  0  0  0
    8.0884    1.5346    0.0000 C   0  0  0  0  0  0  0  0  0  0  0  0
    8.0884    2.5346    0.0000 C   0  0  0  0  0  0  0  0  0  0  0  0
    2.8757   -3.4346    0.0000 C   0  0  0  0  0  0  0  0  0  0  0  0
    8.9544    3.0346    0.0000 C   0  0  0  0  0  0  0  0  0  0  0  0
    8.9544    4.0346    0.0000 C   0  0  0  0  0  0  0  0  0  0  0  0
    9.8204    4.5346    0.0000 C   0  0  0  0  0  0  0  0  0  0  0  0
   10.6865    3.0346    0.0000 C   0  0  0  0  0  0  0  0  0  0  0  0
   10.6865    4.0346    0.0000 C   0  0  0  0  0  0  0  0  0  0  0  0
    5.8336   -3.8415    0.0000 H   0  0  0  0  0  0  0  0  0  0  0  0
    7.4879   -3.5959    0.0000 H   0  0  0  0  0  0  0  0  0  0  0  0
    7.8844   -2.9030    0.0000 H   0  0  0  0  0  0  0  0  0  0  0  0
    5.7484   -4.5322    0.0000 H   0  0  0  0  0  0  0  0  0  0  0  0
    6.3661   -5.1546    0.0000 H   0  0  0  0  0  0  0  0  0  0  0  0
    6.9884   -4.5370    0.0000 H   0  0  0  0  0  0  0  0  0  0  0  0
    4.5773   -4.0893    0.0000 H   0  0  0  0  0  0  0  0  0  0  0  0
    7.7593   -0.2754    0.0000 H   0  0  0  0  0  0  0  0  0  0  0  0
    7.0103    1.6172    0.0000 H   0  0  0  0  0  0  0  0  0  0  0  0
    6.6118    0.9270    0.0000 H   0  0  0  0  0  0  0  0  0  0  0  0
    8.3005    0.9520    0.0000 H   0  0  0  0  0  0  0  0  0  0  0  0
    8.6990    1.6423    0.0000 H   0  0  0  0  0  0  0  0  0  0  0  0
    7.8764    3.1172    0.0000 H   0  0  0  0  0  0  0  0  0  0  0  0
    7.4778    2.4270    0.0000 H   0  0  0  0  0  0  0  0  0  0  0  0
    3.7583    0.6546    0.0000 H   0  0  0  0  0  0  0  0  0  0  0  0
    3.2213   -0.2754    0.0000 H   0  0  0  0  0  0  0  0  0  0  0  0
    8.4175    4.3446    0.0000 H   0  0  0  0  0  0  0  0  0  0  0  0
    9.8204    5.1546    0.0000 H   0  0  0  0  0  0  0  0  0  0  0  0
   11.2234    2.7246    0.0000 H   0  0  0  0  0  0  0  0  0  0  0  0
   11.2234    4.3446    0.0000 H   0  0  0  0  0  0  0  0  0  0  0  0
  1 18  1  0  0  0  0
  2 11  1  0  0  0  0
  2 12  1  0  0  0  0
  3 19  2  0  0  0  0
  4  9  1  0  0  0  0
  4 10  1  0  0  0  0
  4 16  1  0  0  0  0
  5 14  1  0  0  0  0
  5 21  1  0  0  0  0
  5 37  1  0  0  0  0
  6 17  1  0  0  0  0
  6 44  1  0  0  0  0
  6 45  1  0  0  0  0
  7 25  1  0  0  0  0
  7 28  2  0  0  0  0
  8 24  3  0  0  0  0
  9 11  1  0  0  0  0
  9 15  1  6  0  0  0
  9 30  1  0  0  0  0
 10 12  2  0  0  0  0
 10 13  1  0  0  0  0
 11 31  1  0  0  0  0
 11 32  1  0  0  0  0
 12 14  1  0  0  0  0
 13 17  2  0  0  0  0
 13 19  1  0  0  0  0
 14 18  2  0  0  0  0
 15 33  1  0  0  0  0
 15 34  1  0  0  0  0
 15 35  1  0  0  0  0
 16 20  2  0  0  0  0
 16 36  1  0  0  0  0
 17 18  1  0  0  0  0
 19 20  1  0  0  0  0
 20 24  1  0  0  0  0
 21 22  1  0  0  0  0
 21 38  1  0  0  0  0
 21 39  1  0  0  0  0
 22 23  1  0  0  0  0
 22 40  1  0  0  0  0
 22 41  1  0  0  0  0
 23 25  1  0  0  0  0
 23 42  1  0  0  0  0
 23 43  1  0  0  0  0
 25 26  2  0  0  0  0
 26 27  1  0  0  0  0
 26 46  1  0  0  0  0
 27 29  2  0  0  0  0
 27 47  1  0  0  0  0
 28 29  1  0  0  0  0
 28 48  1  0  0  0  0
 29 49  1  0  0  0  0
M  END
> <PUBCHEM_COMPOUND_CID>
56945119

> <PUBCHEM_COMPOUND_CANONICALIZED>
1

> <PUBCHEM_CACTVS_COMPLEXITY>
706

> <PUBCHEM_CACTVS_HBOND_ACCEPTOR>
8

> <PUBCHEM_CACTVS_HBOND_DONOR>
2

> <PUBCHEM_CACTVS_ROTATABLE_BOND>
5

> <PUBCHEM_CACTVS_SUBSKEYS>
AAADceB7sQAAAAAAAAAAAAAAAAAAAAAAAAA8WIEAAAAAAACxwAAAHwAQAAAADCzhng4+xpPIFAC4B7R3RACiiCA1IiAI2KE9bNgOpvrE9duHOajk0BHY6c+6ybCeCEABAAQCEAAQgAIACAQgAAAAAAAAAA==

> <PUBCHEM_IUPAC_INCHI>
InChI=1S/C21H20FN5O2/c1-12-11-29-21-18(26-8-4-6-14-5-2-3-7-25-14)16(22)17(24)15-19(21)27(12)10-13(9-23)20(15)28/h2-3,5,7,10,12,26H,4,6,8,11,24H2,1H3/t12-/m0/s1

> <PUBCHEM_IUPAC_INCHIKEY>
ZGPDFKYQHBHSHB-LBPRGKRZSA-N

> <PUBCHEM_XLOGP3_AA>
3

> <PUBCHEM_EXACT_MASS>
393.16

> <PUBCHEM_MOLECULAR_FORMULA>
C21H20FN5O2

> <PUBCHEM_MOLECULAR_WEIGHT>
393.422

> <PUBCHEM_OPENEYE_CAN_SMILES>
CC1COC2=C(C(=C(C3=C2N1C=C(C3=O)C#N)N)F)NCCCC4=CC=CC=N4

> <PUBCHEM_OPENEYE_ISO_SMILES>
C[C@H]1COC2=C(C(=C(C3=C2N1C=C(C3=O)C#N)N)F)NCCCC4=CC=CC=N4

> <PUBCHEM_CACTVS_TPSA>
104

> <PUBCHEM_MONOISOTOPIC_WEIGHT>
393.16

> <PUBCHEM_TOTAL_CHARGE>
0

> <PUBCHEM_HEAVY_ATOM_COUNT>
29

> <PUBCHEM_ATOM_DEF_STEREO_COUNT>
1

> <PUBCHEM_ATOM_UDEF_STEREO_COUNT>
0

> <PUBCHEM_BOND_DEF_STEREO_COUNT>
0

> <PUBCHEM_BOND_UDEF_STEREO_COUNT>
0

> <PUBCHEM_ISOTOPIC_ATOM_COUNT>
0

> <PUBCHEM_COMPONENT_COUNT>
1

> <PUBCHEM_CACTVS_TAUTO_COUNT>
18

> <PUBCHEM_COORDINATE_TYPE>
1
5
255

> <PUBCHEM_BONDANNOTATIONS>
10  12  8
10  13  8
12  14  8
13  17  8
13  19  8
14  18  8
16  20  8
17  18  8
19  20  8
25  26  8
26  27  8
27  29  8
28  29  8
4  10  8
4  16  8
7  25  8
7  28  8
9  15  6

$$$$
57399952
  -OEChem-11021605012D

 47 50  0     1  0  0  0  0  0999 V2000
    5.4903    1.1834    0.0000 F   0  0  0  0  0  0  0  0  0  0  0  0
    7.2664   -1.8234    0.0000 O   0  0  0  0  0  0  0  0  0  0  0  0
    2.9025   -1.3050    0.0000 O   0  0  0  0  0  0  0  0  0  0  0  0
    5.4743   -2.8581    0.0000 N   0  0  0  0  0  0  0  0  0  0  0  0
    7.2224    0.1834    0.0000 N   0  0  0  0  0  0  0  0  0  0  0  0
    3.7583    0.1834    0.0000 N   0  0  0  0  0  0  0  0  0  0  0  0
    8.9544    3.1834    0.0000 N   0  0  0  0  0  0  0  0  0  0  0  0
    9.0590    4.1779    0.0000 N   0  0  0  0  0  0  0  0  0  0  0  0
    2.0000   -3.7687    0.0000 N   0  0  0  0  0  0  0  0  0  0  0  0
    6.3723   -3.3858    0.0000 C   0  0  2  0  0  0  0  0  0  0  0  0
    5.4903   -1.8166    0.0000 C   0  0  0  0  0  0  0  0  0  0  0  0
    7.2744   -2.8650    0.0000 C   0  0  0  0  0  0  0  0  0  0  0  0
    6.3564   -1.3166    0.0000 C   0  0  0  0  0  0  0  0  0  0  0  0
    4.6243   -1.3166    0.0000 C   0  0  0  0  0  0  0  0  0  0  0  0
    6.3564   -0.3166    0.0000 C   0  0  0  0  0  0  0  0  0  0  0  0
    6.3684   -4.3858    0.0000 C   0  0  0  0  0  0  0  0  0  0  0  0
    4.5972   -3.3208    0.0000 C   0  0  0  0  0  0  0  0  0  0  0  0
    4.6243   -0.3166    0.0000 C   0  0  0  0  0  0  0  0  0  0  0  0
    5.4903    0.1834    0.0000 C   0  0  0  0  0  0  0  0  0  0  0  0
    3.7648   -1.8114    0.0000 C   0  0  0  0  0  0  0  0  0  0  0  0
    3.7514   -2.8030    0.0000 C   0  0  0  0  0  0  0  0  0  0  0  0
    7.2224    1.1834    0.0000 C   0  0  0  0  0  0  0  0  0  0  0  0
    8.0884    1.6834    0.0000 C   0  0  0  0  0  0  0  0  0  0  0  0
    8.0884    2.6834    0.0000 C   0  0  0  0  0  0  0  0  0  0  0  0
    2.8757   -3.2858    0.0000 C   0  0  0  0  0  0  0  0  0  0  0  0
    9.8680    2.7767    0.0000 C   0  0  0  0  0  0  0  0  0  0  0  0
   10.5371    3.5198    0.0000 C   0  0  0  0  0  0  0  0  0  0  0  0
   10.0371    4.3858    0.0000 C   0  0  0  0  0  0  0  0  0  0  0  0
    5.8336   -3.6927    0.0000 H   0  0  0  0  0  0  0  0  0  0  0  0
    7.4879   -3.4471    0.0000 H   0  0  0  0  0  0  0  0  0  0  0  0
    7.8844   -2.7542    0.0000 H   0  0  0  0  0  0  0  0  0  0  0  0
    5.7484   -4.3834    0.0000 H   0  0  0  0  0  0  0  0  0  0  0  0
    6.3661   -5.0058    0.0000 H   0  0  0  0  0  0  0  0  0  0  0  0
    6.9884   -4.3882    0.0000 H   0  0  0  0  0  0  0  0  0  0  0  0
    4.5773   -3.9405    0.0000 H   0  0  0  0  0  0  0  0  0  0  0  0
    7.7593   -0.1266    0.0000 H   0  0  0  0  0  0  0  0  0  0  0  0
    7.0103    1.7660    0.0000 H   0  0  0  0  0  0  0  0  0  0  0  0
    6.6118    1.0758    0.0000 H   0  0  0  0  0  0  0  0  0  0  0  0
    8.3005    1.1008    0.0000 H   0  0  0  0  0  0  0  0  0  0  0  0
    8.6990    1.7911    0.0000 H   0  0  0  0  0  0  0  0  0  0  0  0
    7.8764    3.2660    0.0000 H   0  0  0  0  0  0  0  0  0  0  0  0
    7.4778    2.5758    0.0000 H   0  0  0  0  0  0  0  0  0  0  0  0
    3.7583    0.8034    0.0000 H   0  0  0  0  0  0  0  0  0  0  0  0
    3.2213   -0.1266    0.0000 H   0  0  0  0  0  0  0  0  0  0  0  0
    9.9969    2.1702    0.0000 H   0  0  0  0  0  0  0  0  0  0  0  0
   11.1537    3.4550    0.0000 H   0  0  0  0  0  0  0  0  0  0  0  0
   10.2893    4.9522    0.0000 H   0  0  0  0  0  0  0  0  0  0  0  0
  1 19  1  0  0  0  0
  2 12  1  0  0  0  0
  2 13  1  0  0  0  0
  3 20  2  0  0  0  0
  4 10  1  0  0  0  0
  4 11  1  0  0  0  0
  4 17  1  0  0  0  0
  5 15  1  0  0  0  0
  5 22  1  0  0  0  0
  5 36  1  0  0  0  0
  6 18  1  0  0  0  0
  6 43  1  0  0  0  0
  6 44  1  0  0  0  0
  7  8  1  0  0  0  0
  7 24  1  0  0  0  0
  7 26  1  0  0  0  0
  8 28  2  0  0  0  0
  9 25  3  0  0  0  0
 10 12  1  0  0  0  0
 10 16  1  6  0  0  0
 10 29  1  0  0  0  0
 11 13  2  0  0  0  0
 11 14  1  0  0  0  0
 12 30  1  0  0  0  0
 12 31  1  0  0  0  0
 13 15  1  0  0  0  0
 14 18  2  0  0  0  0
 14 20  1  0  0  0  0
 15 19  2  0  0  0  0
 16 32  1  0  0  0  0
 16 33  1  0  0  0  0
 16 34  1  0  0  0  0
 17 21  2  0  0  0  0
 17 35  1  0  0  0  0
 18 19  1  0  0  0  0
 20 21  1  0  0  0  0
 21 25  1  0  0  0  0
 22 23  1  0  0  0  0
 22 37  1  0  0  0  0
 22 38  1  0  0  0  0
 23 24  1  0  0  0  0
 23 39  1  0  0  0  0
 23 40  1  0  0  0  0
 24 41  1  0  0  0  0
 24 42  1  0  0  0  0
 26 27  2  0  0  0  0
 26 45  1  0  0  0  0
 27 28  1  0  0  0  0
 27 46  1  0  0  0  0
 28 47  1  0  0  0  0
M  END
> <PUBCHEM_COMPOUND_CID>
57399952

> <PUBCHEM_COMPOUND_CANONICALIZED>
1

> <PUBCHEM_CACTVS_COMPLEXITY>
693

> <PUBCHEM_CACTVS_HBOND_ACCEPTOR>
8

> <PUBCHEM_CACTVS_HBOND_DONOR>
2

> <PUBCHEM_CACTVS_ROTATABLE_BOND>
5

> <PUBCHEM_CACTVS_SUBSKEYS>
AAADceB7sQAAAAAAAAAAAAAAAAAAAWAAAAA8QIAAAAAAAACxwAAAHwAYAAAADCzhmg4+xpPIBAC6BrR3RACyDAA1ogAY2KE9bNgOprrE9duHvajk2BHY6c+6ybCeCEABAAQCEAAQgAIACAQgAAAAAAAAAA==

> <PUBCHEM_IUPAC_INCHI>
InChI=1S/C19H19FN6O2/c1-11-10-28-19-16(23-4-2-6-25-7-3-5-24-25)14(20)15(22)13-17(19)26(11)9-12(8-21)18(13)27/h3,5,7,9,11,23H,2,4,6,10,22H2,1H3/t11-/m0/s1

> <PUBCHEM_IUPAC_INCHIKEY>
RVTPASXIVVSLSI-NSHDSACASA-N

> <PUBCHEM_XLOGP3_AA>
2.1

> <PUBCHEM_EXACT_MASS>
382.155

> <PUBCHEM_MOLECULAR_FORMULA>
C19H19FN6O2

> <PUBCHEM_MOLECULAR_WEIGHT>
382.399

> <PUBCHEM_OPENEYE_CAN_SMILES>
CC1COC2=C(C(=C(C3=C2N1C=C(C3=O)C#N)N)F)NCCCN4C=CC=N4

> <PUBCHEM_OPENEYE_ISO_SMILES>
C[C@H]1COC2=C(C(=C(C3=C2N1C=C(C3=O)C#N)N)F)NCCCN4C=CC=N4

> <PUBCHEM_CACTVS_TPSA>
109

> <PUBCHEM_MONOISOTOPIC_WEIGHT>
382.155

> <PUBCHEM_TOTAL_CHARGE>
0

> <PUBCHEM_HEAVY_ATOM_COUNT>
28

> <PUBCHEM_ATOM_DEF_STEREO_COUNT>
1

> <PUBCHEM_ATOM_UDEF_STEREO_COUNT>
0

> <PUBCHEM_BOND_DEF_STEREO_COUNT>
0

> <PUBCHEM_BOND_UDEF_STEREO_COUNT>
0

> <PUBCHEM_ISOTOPIC_ATOM_COUNT>
0

> <PUBCHEM_COMPONENT_COUNT>
1

> <PUBCHEM_CACTVS_TAUTO_COUNT>
9

> <PUBCHEM_COORDINATE_TYPE>
1
5
255

> <PUBCHEM_BONDANNOTATIONS>
10  16  6
11  13  8
11  14  8
13  15  8
14  18  8
14  20  8
15  19  8
17  21  8
18  19  8
20  21  8
26  27  8
27  28  8
4  11  8
4  17  8
7  26  8
7  8  8
8  28  8

$$$$
57393017
  -OEChem-11021605012D

 49 52  0     1  0  0  0  0  0999 V2000
    5.4706    1.2830    0.0000 F   0  0  0  0  0  0  0  0  0  0  0  0
    7.2467   -1.7239    0.0000 O   0  0  0  0  0  0  0  0  0  0  0  0
    2.8828   -1.2054    0.0000 O   0  0  0  0  0  0  0  0  0  0  0  0
    2.8363   -4.1860    0.0000 O   0  0  0  0  0  0  0  0  0  0  0  0
    2.0000   -2.6693    0.0000 O   0  0  0  0  0  0  0  0  0  0  0  0
    5.4546   -2.7585    0.0000 N   0  0  0  0  0  0  0  0  0  0  0  0
    7.2027    0.2830    0.0000 N   0  0  0  0  0  0  0  0  0  0  0  0
    3.7386    0.2830    0.0000 N   0  0  0  0  0  0  0  0  0  0  0  0
    8.9347    3.2830    0.0000 N   0  0  0  0  0  0  0  0  0  0  0  0
    9.0393    4.2775    0.0000 N   0  0  0  0  0  0  0  0  0  0  0  0
    6.3526   -3.2863    0.0000 C   0  0  2  0  0  0  0  0  0  0  0  0
    5.4706   -1.7170    0.0000 C   0  0  0  0  0  0  0  0  0  0  0  0
    7.2547   -2.7655    0.0000 C   0  0  0  0  0  0  0  0  0  0  0  0
    6.3367   -1.2170    0.0000 C   0  0  0  0  0  0  0  0  0  0  0  0
    4.6046   -1.2170    0.0000 C   0  0  0  0  0  0  0  0  0  0  0  0
    6.3367   -0.2170    0.0000 C   0  0  0  0  0  0  0  0  0  0  0  0
    4.5775   -3.2213    0.0000 C   0  0  0  0  0  0  0  0  0  0  0  0
    6.3488   -4.2863    0.0000 C   0  0  0  0  0  0  0  0  0  0  0  0
    4.6046   -0.2170    0.0000 C   0  0  0  0  0  0  0  0  0  0  0  0
    3.7452   -1.7118    0.0000 C   0  0  0  0  0  0  0  0  0  0  0  0
    3.7317   -2.7034    0.0000 C   0  0  0  0  0  0  0  0  0  0  0  0
    5.4706    0.2830    0.0000 C   0  0  0  0  0  0  0  0  0  0  0  0
    7.2027    1.2830    0.0000 C   0  0  0  0  0  0  0  0  0  0  0  0
    8.0687    1.7830    0.0000 C   0  0  0  0  0  0  0  0  0  0  0  0
    8.0687    2.7830    0.0000 C   0  0  0  0  0  0  0  0  0  0  0  0
    2.8560   -3.1862    0.0000 C   0  0  0  0  0  0  0  0  0  0  0  0
    9.8483    2.8763    0.0000 C   0  0  0  0  0  0  0  0  0  0  0  0
   10.5174    3.6194    0.0000 C   0  0  0  0  0  0  0  0  0  0  0  0
   10.0174    4.4854    0.0000 C   0  0  0  0  0  0  0  0  0  0  0  0
    5.8139   -3.5932    0.0000 H   0  0  0  0  0  0  0  0  0  0  0  0
    7.4682   -3.3475    0.0000 H   0  0  0  0  0  0  0  0  0  0  0  0
    7.8647   -2.6547    0.0000 H   0  0  0  0  0  0  0  0  0  0  0  0
    4.5576   -3.8410    0.0000 H   0  0  0  0  0  0  0  0  0  0  0  0
    5.7288   -4.2839    0.0000 H   0  0  0  0  0  0  0  0  0  0  0  0
    6.3464   -4.9063    0.0000 H   0  0  0  0  0  0  0  0  0  0  0  0
    6.9688   -4.2886    0.0000 H   0  0  0  0  0  0  0  0  0  0  0  0
    7.7396   -0.0270    0.0000 H   0  0  0  0  0  0  0  0  0  0  0  0
    6.9906    1.8656    0.0000 H   0  0  0  0  0  0  0  0  0  0  0  0
    6.5921    1.1753    0.0000 H   0  0  0  0  0  0  0  0  0  0  0  0
    8.2808    1.2004    0.0000 H   0  0  0  0  0  0  0  0  0  0  0  0
    8.6793    1.8906    0.0000 H   0  0  0  0  0  0  0  0  0  0  0  0
    7.8567    3.3656    0.0000 H   0  0  0  0  0  0  0  0  0  0  0  0
    7.4581    2.6753    0.0000 H   0  0  0  0  0  0  0  0  0  0  0  0
    3.7386    0.9030    0.0000 H   0  0  0  0  0  0  0  0  0  0  0  0
    3.2016   -0.0270    0.0000 H   0  0  0  0  0  0  0  0  0  0  0  0
    9.9772    2.2698    0.0000 H   0  0  0  0  0  0  0  0  0  0  0  0
    2.2934   -4.4854    0.0000 H   0  0  0  0  0  0  0  0  0  0  0  0
   11.1340    3.5546    0.0000 H   0  0  0  0  0  0  0  0  0  0  0  0
   10.2696    5.0518    0.0000 H   0  0  0  0  0  0  0  0  0  0  0  0
  1 22  1  0  0  0  0
  2 13  1  0  0  0  0
  2 14  1  0  0  0  0
  3 20  2  0  0  0  0
  4 26  1  0  0  0  0
  4 47  1  0  0  0  0
  5 26  2  0  0  0  0
  6 11  1  0  0  0  0
  6 12  1  0  0  0  0
  6 17  1  0  0  0  0
  7 16  1  0  0  0  0
  7 23  1  0  0  0  0
  7 37  1  0  0  0  0
  8 19  1  0  0  0  0
  8 44  1  0  0  0  0
  8 45  1  0  0  0  0
  9 10  1  0  0  0  0
  9 25  1  0  0  0  0
  9 27  1  0  0  0  0
 10 29  2  0  0  0  0
 11 13  1  0  0  0  0
 11 18  1  6  0  0  0
 11 30  1  0  0  0  0
 12 14  2  0  0  0  0
 12 15  1  0  0  0  0
 13 31  1  0  0  0  0
 13 32  1  0  0  0  0
 14 16  1  0  0  0  0
 15 19  2  0  0  0  0
 15 20  1  0  0  0  0
 16 22  2  0  0  0  0
 17 21  2  0  0  0  0
 17 33  1  0  0  0  0
 18 34  1  0  0  0  0
 18 35  1  0  0  0  0
 18 36  1  0  0  0  0
 19 22  1  0  0  0  0
 20 21  1  0  0  0  0
 21 26  1  0  0  0  0
 23 24  1  0  0  0  0
 23 38  1  0  0  0  0
 23 39  1  0  0  0  0
 24 25  1  0  0  0  0
 24 40  1  0  0  0  0
 24 41  1  0  0  0  0
 25 42  1  0  0  0  0
 25 43  1  0  0  0  0
 27 28  2  0  0  0  0
 27 46  1  0  0  0  0
 28 29  1  0  0  0  0
 28 48  1  0  0  0  0
 29 49  1  0  0  0  0
M  END
> <PUBCHEM_COMPOUND_CID>
57393017

> <PUBCHEM_COMPOUND_CANONICALIZED>
1

> <PUBCHEM_CACTVS_COMPLEXITY>
692

> <PUBCHEM_CACTVS_HBOND_ACCEPTOR>
9

> <PUBCHEM_CACTVS_HBOND_DONOR>
3

> <PUBCHEM_CACTVS_ROTATABLE_BOND>
6

> <PUBCHEM_CACTVS_SUBSKEYS>
AAADceB7uQAAAAAAAAAAAAAAAAAAAWAAAAA8QIAAAAAAAACxwAAAHwAYCAAADCzhmg4+zpPIBgCqArT3TACSDAA1ogAY2KE9bNgOJr7M9duH/ajk+BHY+ce62bOeCEABAAQCEAAQgAIACAQgAAAAAAAAAA==

> <PUBCHEM_IUPAC_INCHI>
InChI=1S/C19H20FN5O4/c1-10-9-29-18-15(22-4-2-6-24-7-3-5-23-24)13(20)14(21)12-16(18)25(10)8-11(17(12)26)19(27)28/h3,5,7-8,10,22H,2,4,6,9,21H2,1H3,(H,27,28)/t10-/m0/s1

> <PUBCHEM_IUPAC_INCHIKEY>
ORAKRBLBWOVZSD-JTQLQIEISA-N

> <PUBCHEM_XLOGP3_AA>
1.9

> <PUBCHEM_EXACT_MASS>
401.15

> <PUBCHEM_MOLECULAR_FORMULA>
C19H20FN5O4

> <PUBCHEM_MOLECULAR_WEIGHT>
401.398

> <PUBCHEM_OPENEYE_CAN_SMILES>
CC1COC2=C(C(=C(C3=C2N1C=C(C3=O)C(=O)O)N)F)NCCCN4C=CC=N4

> <PUBCHEM_OPENEYE_ISO_SMILES>
C[C@H]1COC2=C(C(=C(C3=C2N1C=C(C3=O)C(=O)O)N)F)NCCCN4C=CC=N4

> <PUBCHEM_CACTVS_TPSA>
123

> <PUBCHEM_MONOISOTOPIC_WEIGHT>
401.15

> <PUBCHEM_TOTAL_CHARGE>
0

> <PUBCHEM_HEAVY_ATOM_COUNT>
29

> <PUBCHEM_ATOM_DEF_STEREO_COUNT>
1

> <PUBCHEM_ATOM_UDEF_STEREO_COUNT>
0

> <PUBCHEM_BOND_DEF_STEREO_COUNT>
0

> <PUBCHEM_BOND_UDEF_STEREO_COUNT>
0

> <PUBCHEM_ISOTOPIC_ATOM_COUNT>
0

> <PUBCHEM_COMPONENT_COUNT>
1

> <PUBCHEM_CACTVS_TAUTO_COUNT>
9

> <PUBCHEM_COORDINATE_TYPE>
1
5
255

> <PUBCHEM_BONDANNOTATIONS>
10  29  8
11  18  6
12  14  8
12  15  8
14  16  8
15  19  8
15  20  8
16  22  8
17  21  8
19  22  8
20  21  8
27  28  8
28  29  8
6  12  8
6  17  8
9  10  8
9  27  8

$$$$
44222958
  -OEChem-11021605012D

 40 44  0     0  0  0  0  0  0999 V2000
    5.1424   -1.2846    0.0000 Cl  0  0  0  0  0  0  0  0  0  0  0  0
    5.1424   -0.2846    0.0000 N   0  0  0  0  0  0  0  0  0  0  0  0
    6.8744   -0.2846    0.0000 N   0  0  0  0  0  0  0  0  0  0  0  0
    6.0244    3.2846    0.0000 N   0  0  0  0  0  0  0  0  0  0  0  0
    2.5918   -1.9163    0.0000 N   0  0  0  0  0  0  0  0  0  0  0  0
    4.2098   -1.8976    0.0000 N   0  0  0  0  0  0  0  0  0  0  0  0
    2.9118   -2.8638    0.0000 N   0  0  0  0  0  0  0  0  0  0  0  0
    4.2764    1.2154    0.0000 C   0  0  0  0  0  0  0  0  0  0  0  0
    5.1424    1.7154    0.0000 C   0  0  0  0  0  0  0  0  0  0  0  0
    4.2764    0.2154    0.0000 C   0  0  0  0  0  0  0  0  0  0  0  0
    6.0084    1.2154    0.0000 C   0  0  0  0  0  0  0  0  0  0  0  0
    6.0084    0.2154    0.0000 C   0  0  0  0  0  0  0  0  0  0  0  0
    3.3824   -0.3193    0.0000 C   0  0  0  0  0  0  0  0  0  0  0  0
    3.3824    1.7500    0.0000 C   0  0  0  0  0  0  0  0  0  0  0  0
    2.4764    0.1946    0.0000 C   0  0  0  0  0  0  0  0  0  0  0  0
    6.9184    1.7222    0.0000 C   0  0  0  0  0  0  0  0  0  0  0  0
    5.1263    2.7569    0.0000 C   0  0  0  0  0  0  0  0  0  0  0  0
    2.4764    1.2362    0.0000 C   0  0  0  0  0  0  0  0  0  0  0  0
    3.3940   -1.3192    0.0000 C   0  0  0  0  0  0  0  0  0  0  0  0
    6.8744   -1.2846    0.0000 C   0  0  0  0  0  0  0  0  0  0  0  0
    6.9265    2.7638    0.0000 C   0  0  0  0  0  0  0  0  0  0  0  0
    6.0084   -1.7846    0.0000 C   0  0  0  0  0  0  0  0  0  0  0  0
    7.7405   -1.7846    0.0000 C   0  0  0  0  0  0  0  0  0  0  0  0
    6.0084   -2.7846    0.0000 C   0  0  0  0  0  0  0  0  0  0  0  0
    7.7405   -2.7846    0.0000 C   0  0  0  0  0  0  0  0  0  0  0  0
    3.9118   -2.8522    0.0000 C   0  0  0  0  0  0  0  0  0  0  0  0
    6.8744   -3.2846    0.0000 C   0  0  0  0  0  0  0  0  0  0  0  0
    3.3896    2.3700    0.0000 H   0  0  0  0  0  0  0  0  0  0  0  0
    1.9406   -0.1175    0.0000 H   0  0  0  0  0  0  0  0  0  0  0  0
    7.4517    1.4060    0.0000 H   0  0  0  0  0  0  0  0  0  0  0  0
    4.5859    3.0606    0.0000 H   0  0  0  0  0  0  0  0  0  0  0  0
    1.9406    1.5482    0.0000 H   0  0  0  0  0  0  0  0  0  0  0  0
    7.4114    0.0254    0.0000 H   0  0  0  0  0  0  0  0  0  0  0  0
    7.4646    3.0717    0.0000 H   0  0  0  0  0  0  0  0  0  0  0  0
    2.0000   -1.7316    0.0000 H   0  0  0  0  0  0  0  0  0  0  0  0
    8.2774   -1.4746    0.0000 H   0  0  0  0  0  0  0  0  0  0  0  0
    5.4715   -3.0946    0.0000 H   0  0  0  0  0  0  0  0  0  0  0  0
    8.2774   -3.0946    0.0000 H   0  0  0  0  0  0  0  0  0  0  0  0
    6.8744   -3.9046    0.0000 H   0  0  0  0  0  0  0  0  0  0  0  0
    4.2820   -3.3495    0.0000 H   0  0  0  0  0  0  0  0  0  0  0  0
  1 22  1  0  0  0  0
  2 10  2  0  0  0  0
  2 12  1  0  0  0  0
  3 12  1  0  0  0  0
  3 20  1  0  0  0  0
  3 33  1  0  0  0  0
  4 17  2  0  0  0  0
  4 21  1  0  0  0  0
  5  7  1  0  0  0  0
  5 19  1  0  0  0  0
  5 35  1  0  0  0  0
  6 19  2  0  0  0  0
  6 26  1  0  0  0  0
  7 26  2  0  0  0  0
  8  9  2  0  0  0  0
  8 10  1  0  0  0  0
  8 14  1  0  0  0  0
  9 11  1  0  0  0  0
  9 17  1  0  0  0  0
 10 13  1  0  0  0  0
 11 12  2  0  0  0  0
 11 16  1  0  0  0  0
 13 15  2  0  0  0  0
 13 19  1  0  0  0  0
 14 18  2  0  0  0  0
 14 28  1  0  0  0  0
 15 18  1  0  0  0  0
 15 29  1  0  0  0  0
 16 21  2  0  0  0  0
 16 30  1  0  0  0  0
 17 31  1  0  0  0  0
 18 32  1  0  0  0  0
 20 22  1  0  0  0  0
 20 23  2  0  0  0  0
 21 34  1  0  0  0  0
 22 24  2  0  0  0  0
 23 25  1  0  0  0  0
 23 36  1  0  0  0  0
 24 27  1  0  0  0  0
 24 37  1  0  0  0  0
 25 27  2  0  0  0  0
 25 38  1  0  0  0  0
 26 40  1  0  0  0  0
 27 39  1  0  0  0  0
M  END
> <PUBCHEM_COMPOUND_CID>
44222958

> <PUBCHEM_COMPOUND_CANONICALIZED>
1

> <PUBCHEM_CACTVS_COMPLEXITY>
507

> <PUBCHEM_CACTVS_HBOND_ACCEPTOR>
5

> <PUBCHEM_CACTVS_HBOND_DONOR>
2

> <PUBCHEM_CACTVS_ROTATABLE_BOND>
3

> <PUBCHEM_CACTVS_SUBSKEYS>
AAADccB7gAAEAAAAAAAAAAAAAAAAAWAAAAA8eIEAAAAAAACx/gAAHAIYAAAADArBHyQ98PbrEACiAzZnZACSgCuxh6Ad+CA4ZpiIKOLB25HEIAhomALIyCcQgMAOgAACAAACABAAAAQAAAQAIAAAAAAAAA==

> <PUBCHEM_IUPAC_OPENEYE_NAME>
N-(2-chlorophenyl)-7-(1H-1,2,4-triazol-5-yl)benzo[c][2,6]naphthyridin-5-amine

> <PUBCHEM_IUPAC_CAS_NAME>
N-(2-chlorophenyl)-7-(1H-1,2,4-triazol-5-yl)-5-benzo[c][2,6]naphthyridinamine

> <PUBCHEM_IUPAC_NAME>
N-(2-chlorophenyl)-7-(1H-1,2,4-triazol-5-yl)benzo[c][2,6]naphthyridin-5-amine

> <PUBCHEM_IUPAC_SYSTEMATIC_NAME>
N-(2-chlorophenyl)-7-(1H-1,2,4-triazol-5-yl)benzo[c][2,6]naphthyridin-5-amine

> <PUBCHEM_IUPAC_TRADITIONAL_NAME>
(2-chlorophenyl)-[7-(1H-1,2,4-triazol-5-yl)benzo[c][2,6]naphthyridin-5-yl]amine

> <PUBCHEM_IUPAC_INCHI>
InChI=1S/C20H13ClN6/c21-16-6-1-2-7-17(16)25-20-13-8-9-22-10-15(13)12-4-3-5-14(18(12)26-20)19-23-11-24-27-19/h1-11H,(H,25,26)(H,23,24,27)

> <PUBCHEM_IUPAC_INCHIKEY>
WNOHFJIMKSDPHP-UHFFFAOYSA-N

> <PUBCHEM_XLOGP3_AA>
4.6

> <PUBCHEM_EXACT_MASS>
372.089

> <PUBCHEM_MOLECULAR_FORMULA>
C20H13ClN6

> <PUBCHEM_MOLECULAR_WEIGHT>
372.816

> <PUBCHEM_OPENEYE_CAN_SMILES>
C1=CC=C(C(=C1)NC2=C3C=CN=CC3=C4C=CC=C(C4=N2)C5=NC=NN5)Cl

> <PUBCHEM_OPENEYE_ISO_SMILES>
C1=CC=C(C(=C1)NC2=C3C=CN=CC3=C4C=CC=C(C4=N2)C5=NC=NN5)Cl

> <PUBCHEM_CACTVS_TPSA>
79.4

> <PUBCHEM_MONOISOTOPIC_WEIGHT>
372.089

> <PUBCHEM_TOTAL_CHARGE>
0

> <PUBCHEM_HEAVY_ATOM_COUNT>
27

> <PUBCHEM_ATOM_DEF_STEREO_COUNT>
0

> <PUBCHEM_ATOM_UDEF_STEREO_COUNT>
0

> <PUBCHEM_BOND_DEF_STEREO_COUNT>
0

> <PUBCHEM_BOND_UDEF_STEREO_COUNT>
0

> <PUBCHEM_ISOTOPIC_ATOM_COUNT>
0

> <PUBCHEM_COMPONENT_COUNT>
1

> <PUBCHEM_CACTVS_TAUTO_COUNT>
28

> <PUBCHEM_COORDINATE_TYPE>
1
5
255

> <PUBCHEM_BONDANNOTATIONS>
10  13  8
11  12  8
11  16  8
13  15  8
14  18  8
15  18  8
16  21  8
2  10  8
2  12  8
20  22  8
20  23  8
22  24  8
23  25  8
24  27  8
25  27  8
4  17  8
4  21  8
5  19  8
5  7  8
6  19  8
6  26  8
7  26  8
8  10  8
8  14  8
8  9  8
9  11  8
9  17  8

$$$$
56589563
  -OEChem-11021605012D

 47 50  0     0  0  0  0  0  0999 V2000
    2.0000   -3.7500    0.0000 F   0  0  0  0  0  0  0  0  0  0  0  0
    6.3301   -0.2500    0.0000 O   0  0  0  0  0  0  0  0  0  0  0  0
    6.3301   -3.2500    0.0000 O   0  0  0  0  0  0  0  0  0  0  0  0
    3.7320    2.2500    0.0000 N   0  0  0  0  0  0  0  0  0  0  0  0
    2.8660    0.7500    0.0000 N   0  0  0  0  0  0  0  0  0  0  0  0
    5.4641   -1.7500    0.0000 C   0  0  0  0  0  0  0  0  0  0  0  0
    5.4641   -0.7500    0.0000 C   0  0  0  0  0  0  0  0  0  0  0  0
    4.5981   -0.2500    0.0000 C   0  0  0  0  0  0  0  0  0  0  0  0
    7.1962   -1.7500    0.0000 C   0  0  0  0  0  0  0  0  0  0  0  0
    2.8660    2.7500    0.0000 C   0  0  0  0  0  0  0  0  0  0  0  0
    6.3301   -2.2500    0.0000 C   0  0  0  0  0  0  0  0  0  0  0  0
    7.1962   -0.7500    0.0000 C   0  0  0  0  0  0  0  0  0  0  0  0
    4.5981   -2.2500    0.0000 C   0  0  0  0  0  0  0  0  0  0  0  0
    3.7320    1.2500    0.0000 C   0  0  0  0  0  0  0  0  0  0  0  0
    4.5981    0.7500    0.0000 C   0  0  0  0  0  0  0  0  0  0  0  0
    3.7320   -0.7500    0.0000 C   0  0  0  0  0  0  0  0  0  0  0  0
    8.0901   -2.2847    0.0000 C   0  0  0  0  0  0  0  0  0  0  0  0
    2.8660    3.7500    0.0000 C   0  0  0  0  0  0  0  0  0  0  0  0
    2.0000    2.2500    0.0000 C   0  0  0  0  0  0  0  0  0  0  0  0
    8.0901   -0.2153    0.0000 C   0  0  0  0  0  0  0  0  0  0  0  0
    4.5981   -3.2500    0.0000 C   0  0  0  0  0  0  0  0  0  0  0  0
    3.7320   -1.7500    0.0000 C   0  0  0  0  0  0  0  0  0  0  0  0
    2.8660   -0.2500    0.0000 C   0  0  0  0  0  0  0  0  0  0  0  0
    8.9962   -1.7708    0.0000 C   0  0  0  0  0  0  0  0  0  0  0  0
    8.9962   -0.7292    0.0000 C   0  0  0  0  0  0  0  0  0  0  0  0
    3.7320   -3.7500    0.0000 C   0  0  0  0  0  0  0  0  0  0  0  0
    2.8660   -2.2500    0.0000 C   0  0  0  0  0  0  0  0  0  0  0  0
    2.8660   -3.2500    0.0000 C   0  0  0  0  0  0  0  0  0  0  0  0
    2.8660    2.1300    0.0000 H   0  0  0  0  0  0  0  0  0  0  0  0
    5.1350    1.0600    0.0000 H   0  0  0  0  0  0  0  0  0  0  0  0
    4.2690    2.5600    0.0000 H   0  0  0  0  0  0  0  0  0  0  0  0
    3.7320   -1.3700    0.0000 H   0  0  0  0  0  0  0  0  0  0  0  0
    8.0829   -2.9046    0.0000 H   0  0  0  0  0  0  0  0  0  0  0  0
    3.4860    3.7500    0.0000 H   0  0  0  0  0  0  0  0  0  0  0  0
    1.6900    2.7869    0.0000 H   0  0  0  0  0  0  0  0  0  0  0  0
    1.4631    1.9400    0.0000 H   0  0  0  0  0  0  0  0  0  0  0  0
    2.3100    1.7131    0.0000 H   0  0  0  0  0  0  0  0  0  0  0  0
    2.8660    4.3700    0.0000 H   0  0  0  0  0  0  0  0  0  0  0  0
    2.2460    3.7500    0.0000 H   0  0  0  0  0  0  0  0  0  0  0  0
    8.0829    0.4046    0.0000 H   0  0  0  0  0  0  0  0  0  0  0  0
    5.1350   -3.5600    0.0000 H   0  0  0  0  0  0  0  0  0  0  0  0
    3.7320   -1.1300    0.0000 H   0  0  0  0  0  0  0  0  0  0  0  0
    2.3291   -0.5600    0.0000 H   0  0  0  0  0  0  0  0  0  0  0  0
    9.5319   -2.0829    0.0000 H   0  0  0  0  0  0  0  0  0  0  0  0
    9.5319   -0.4171    0.0000 H   0  0  0  0  0  0  0  0  0  0  0  0
    3.7320   -4.3700    0.0000 H   0  0  0  0  0  0  0  0  0  0  0  0
    2.3291   -1.9400    0.0000 H   0  0  0  0  0  0  0  0  0  0  0  0
  1 28  1  0  0  0  0
  2  7  1  0  0  0  0
  2 12  1  0  0  0  0
  3 11  2  0  0  0  0
  4 10  1  0  0  0  0
  4 14  1  0  0  0  0
  4 31  1  0  0  0  0
  5 14  2  0  0  0  0
  5 23  1  0  0  0  0
  6  7  2  0  0  0  0
  6 11  1  0  0  0  0
  6 13  1  0  0  0  0
  7  8  1  0  0  0  0
  8 15  2  0  0  0  0
  8 16  1  0  0  0  0
  9 11  1  0  0  0  0
  9 12  1  0  0  0  0
  9 17  2  0  0  0  0
 10 18  1  0  0  0  0
 10 19  1  0  0  0  0
 10 29  1  0  0  0  0
 12 20  2  0  0  0  0
 13 21  2  0  0  0  0
 13 22  1  0  0  0  0
 14 15  1  0  0  0  0
 15 30  1  0  0  0  0
 16 23  2  0  0  0  0
 16 32  1  0  0  0  0
 17 24  1  0  0  0  0
 17 33  1  0  0  0  0
 18 34  1  0  0  0  0
 18 38  1  0  0  0  0
 18 39  1  0  0  0  0
 19 35  1  0  0  0  0
 19 36  1  0  0  0  0
 19 37  1  0  0  0  0
 20 25  1  0  0  0  0
 20 40  1  0  0  0  0
 21 26  1  0  0  0  0
 21 41  1  0  0  0  0
 22 27  2  0  0  0  0
 22 42  1  0  0  0  0
 23 43  1  0  0  0  0
 24 25  2  0  0  0  0
 24 44  1  0  0  0  0
 25 45  1  0  0  0  0
 26 28  2  0  0  0  0
 26 46  1  0  0  0  0
 27 28  1  0  0  0  0
 27 47  1  0  0  0  0
M  END
> <PUBCHEM_COMPOUND_CID>
56589563

> <PUBCHEM_COMPOUND_CANONICALIZED>
1

> <PUBCHEM_CACTVS_COMPLEXITY>
597

> <PUBCHEM_CACTVS_HBOND_ACCEPTOR>
5

> <PUBCHEM_CACTVS_HBOND_DONOR>
1

> <PUBCHEM_CACTVS_ROTATABLE_BOND>
4

> <PUBCHEM_CACTVS_SUBSKEYS>
AAADceB7MQAAAAAAAAAAAAAAAAAAAAAAAAA8YIEAAAAAAACB0AAAHwAQAAAADCzBmgw/tpLIFACoArJ3ZACCiCk1IiAJ2KE+bNiMJnbEvZuGOWjs8BPI6ae4yPCOAAAAAAAIAAAAAAAAABAAAAAAAAAAAA==

> <PUBCHEM_IUPAC_OPENEYE_NAME>
3-(4-fluorophenyl)-2-[2-(isopropylamino)-4-pyridyl]chromen-4-one

> <PUBCHEM_IUPAC_CAS_NAME>
3-(4-fluorophenyl)-2-[2-(propan-2-ylamino)-4-pyridinyl]-1-benzopyran-4-one

> <PUBCHEM_IUPAC_NAME>
3-(4-fluorophenyl)-2-[2-(propan-2-ylamino)pyridin-4-yl]chromen-4-one

> <PUBCHEM_IUPAC_SYSTEMATIC_NAME>
3-(4-fluorophenyl)-2-[2-(propan-2-ylamino)pyridin-4-yl]chromen-4-one

> <PUBCHEM_IUPAC_TRADITIONAL_NAME>
3-(4-fluorophenyl)-2-[2-(isopropylamino)-4-pyridyl]chromone

> <PUBCHEM_IUPAC_INCHI>
InChI=1S/C23H19FN2O2/c1-14(2)26-20-13-16(11-12-25-20)23-21(15-7-9-17(24)10-8-15)22(27)18-5-3-4-6-19(18)28-23/h3-14H,1-2H3,(H,25,26)

> <PUBCHEM_IUPAC_INCHIKEY>
YOPQQIOJKPUFON-UHFFFAOYSA-N

> <PUBCHEM_XLOGP3_AA>
5

> <PUBCHEM_EXACT_MASS>
374.143

> <PUBCHEM_MOLECULAR_FORMULA>
C23H19FN2O2

> <PUBCHEM_MOLECULAR_WEIGHT>
374.415

> <PUBCHEM_OPENEYE_CAN_SMILES>
CC(C)NC1=NC=CC(=C1)C2=C(C(=O)C3=CC=CC=C3O2)C4=CC=C(C=C4)F

> <PUBCHEM_OPENEYE_ISO_SMILES>
CC(C)NC1=NC=CC(=C1)C2=C(C(=O)C3=CC=CC=C3O2)C4=CC=C(C=C4)F

> <PUBCHEM_CACTVS_TPSA>
51.2

> <PUBCHEM_MONOISOTOPIC_WEIGHT>
374.143

> <PUBCHEM_TOTAL_CHARGE>
0

> <PUBCHEM_HEAVY_ATOM_COUNT>
28

> <PUBCHEM_ATOM_DEF_STEREO_COUNT>
0

> <PUBCHEM_ATOM_UDEF_STEREO_COUNT>
0

> <PUBCHEM_BOND_DEF_STEREO_COUNT>
0

> <PUBCHEM_BOND_UDEF_STEREO_COUNT>
0

> <PUBCHEM_ISOTOPIC_ATOM_COUNT>
0

> <PUBCHEM_COMPONENT_COUNT>
1

> <PUBCHEM_CACTVS_TAUTO_COUNT>
2

> <PUBCHEM_COORDINATE_TYPE>
1
5
255

> <PUBCHEM_BONDANNOTATIONS>
12  20  8
13  21  8
13  22  8
14  15  8
16  23  8
17  24  8
2  12  8
2  7  8
20  25  8
21  26  8
22  27  8
24  25  8
26  28  8
27  28  8
5  14  8
5  23  8
6  11  8
6  7  8
8  15  8
8  16  8
9  11  8
9  12  8
9  17  8

$$$$
56589562
  -OEChem-11021605012D

 54 58  0     0  0  0  0  0  0999 V2000
    2.8660   -4.0000    0.0000 F   0  0  0  0  0  0  0  0  0  0  0  0
    7.1962   -0.5000    0.0000 O   0  0  0  0  0  0  0  0  0  0  0  0
    7.1962   -3.5000    0.0000 O   0  0  0  0  0  0  0  0  0  0  0  0
    4.5981    2.0000    0.0000 N   0  0  0  0  0  0  0  0  0  0  0  0
    3.7320    0.5000    0.0000 N   0  0  0  0  0  0  0  0  0  0  0  0
    3.7320    2.5000    0.0000 C   0  0  0  0  0  0  0  0  0  0  0  0
    3.7320    3.5000    0.0000 C   0  0  0  0  0  0  0  0  0  0  0  0
    2.8660    2.0000    0.0000 C   0  0  0  0  0  0  0  0  0  0  0  0
    2.0000    2.5000    0.0000 C   0  0  0  0  0  0  0  0  0  0  0  0
    2.8660    4.0000    0.0000 C   0  0  0  0  0  0  0  0  0  0  0  0
    2.0000    3.5000    0.0000 C   0  0  0  0  0  0  0  0  0  0  0  0
    4.5981    1.0000    0.0000 C   0  0  0  0  0  0  0  0  0  0  0  0
    5.4641    0.5000    0.0000 C   0  0  0  0  0  0  0  0  0  0  0  0
    5.4641   -0.5000    0.0000 C   0  0  0  0  0  0  0  0  0  0  0  0
    6.3301   -1.0000    0.0000 C   0  0  0  0  0  0  0  0  0  0  0  0
    4.5981   -1.0000    0.0000 C   0  0  0  0  0  0  0  0  0  0  0  0
    6.3301   -2.0000    0.0000 C   0  0  0  0  0  0  0  0  0  0  0  0
    3.7320   -0.5000    0.0000 C   0  0  0  0  0  0  0  0  0  0  0  0
    7.1962   -2.5000    0.0000 C   0  0  0  0  0  0  0  0  0  0  0  0
    8.0622   -2.0000    0.0000 C   0  0  0  0  0  0  0  0  0  0  0  0
    8.0622   -1.0000    0.0000 C   0  0  0  0  0  0  0  0  0  0  0  0
    5.4641   -2.5000    0.0000 C   0  0  0  0  0  0  0  0  0  0  0  0
    8.9561   -2.5347    0.0000 C   0  0  0  0  0  0  0  0  0  0  0  0
    8.9561   -0.4653    0.0000 C   0  0  0  0  0  0  0  0  0  0  0  0
    4.5981   -2.0000    0.0000 C   0  0  0  0  0  0  0  0  0  0  0  0
    5.4641   -3.5000    0.0000 C   0  0  0  0  0  0  0  0  0  0  0  0
    9.8622   -2.0208    0.0000 C   0  0  0  0  0  0  0  0  0  0  0  0
    9.8622   -0.9792    0.0000 C   0  0  0  0  0  0  0  0  0  0  0  0
    3.7320   -2.5000    0.0000 C   0  0  0  0  0  0  0  0  0  0  0  0
    4.5981   -4.0000    0.0000 C   0  0  0  0  0  0  0  0  0  0  0  0
    3.7320   -3.5000    0.0000 C   0  0  0  0  0  0  0  0  0  0  0  0
    3.7320    1.8800    0.0000 H   0  0  0  0  0  0  0  0  0  0  0  0
    4.3426    3.3923    0.0000 H   0  0  0  0  0  0  0  0  0  0  0  0
    3.9441    4.0826    0.0000 H   0  0  0  0  0  0  0  0  0  0  0  0
    2.4675    1.5250    0.0000 H   0  0  0  0  0  0  0  0  0  0  0  0
    3.2646    1.5250    0.0000 H   0  0  0  0  0  0  0  0  0  0  0  0
    1.3894    2.6077    0.0000 H   0  0  0  0  0  0  0  0  0  0  0  0
    1.7880    1.9174    0.0000 H   0  0  0  0  0  0  0  0  0  0  0  0
    3.2646    4.4750    0.0000 H   0  0  0  0  0  0  0  0  0  0  0  0
    2.4675    4.4750    0.0000 H   0  0  0  0  0  0  0  0  0  0  0  0
    1.7880    4.0826    0.0000 H   0  0  0  0  0  0  0  0  0  0  0  0
    1.3894    3.3923    0.0000 H   0  0  0  0  0  0  0  0  0  0  0  0
    5.1350    2.3100    0.0000 H   0  0  0  0  0  0  0  0  0  0  0  0
    6.0010    0.8100    0.0000 H   0  0  0  0  0  0  0  0  0  0  0  0
    4.5981   -1.6200    0.0000 H   0  0  0  0  0  0  0  0  0  0  0  0
    3.1951   -0.8100    0.0000 H   0  0  0  0  0  0  0  0  0  0  0  0
    8.9490   -3.1546    0.0000 H   0  0  0  0  0  0  0  0  0  0  0  0
    8.9490    0.1546    0.0000 H   0  0  0  0  0  0  0  0  0  0  0  0
    4.5981   -1.3800    0.0000 H   0  0  0  0  0  0  0  0  0  0  0  0
    6.0010   -3.8100    0.0000 H   0  0  0  0  0  0  0  0  0  0  0  0
   10.3979   -2.3329    0.0000 H   0  0  0  0  0  0  0  0  0  0  0  0
   10.3979   -0.6671    0.0000 H   0  0  0  0  0  0  0  0  0  0  0  0
    3.1951   -2.1900    0.0000 H   0  0  0  0  0  0  0  0  0  0  0  0
    4.5981   -4.6200    0.0000 H   0  0  0  0  0  0  0  0  0  0  0  0
  1 31  1  0  0  0  0
  2 15  1  0  0  0  0
  2 21  1  0  0  0  0
  3 19  2  0  0  0  0
  4  6  1  0  0  0  0
  4 12  1  0  0  0  0
  4 43  1  0  0  0  0
  5 12  2  0  0  0  0
  5 18  1  0  0  0  0
  6  7  1  0  0  0  0
  6  8  1  0  0  0  0
  6 32  1  0  0  0  0
  7 10  1  0  0  0  0
  7 33  1  0  0  0  0
  7 34  1  0  0  0  0
  8  9  1  0  0  0  0
  8 35  1  0  0  0  0
  8 36  1  0  0  0  0
  9 11  1  0  0  0  0
  9 37  1  0  0  0  0
  9 38  1  0  0  0  0
 10 11  1  0  0  0  0
 10 39  1  0  0  0  0
 10 40  1  0  0  0  0
 11 41  1  0  0  0  0
 11 42  1  0  0  0  0
 12 13  1  0  0  0  0
 13 14  2  0  0  0  0
 13 44  1  0  0  0  0
 14 15  1  0  0  0  0
 14 16  1  0  0  0  0
 15 17  2  0  0  0  0
 16 18  2  0  0  0  0
 16 45  1  0  0  0  0
 17 19  1  0  0  0  0
 17 22  1  0  0  0  0
 18 46  1  0  0  0  0
 19 20  1  0  0  0  0
 20 21  1  0  0  0  0
 20 23  2  0  0  0  0
 21 24  2  0  0  0  0
 22 25  2  0  0  0  0
 22 26  1  0  0  0  0
 23 27  1  0  0  0  0
 23 47  1  0  0  0  0
 24 28  1  0  0  0  0
 24 48  1  0  0  0  0
 25 29  1  0  0  0  0
 25 49  1  0  0  0  0
 26 30  2  0  0  0  0
 26 50  1  0  0  0  0
 27 28  2  0  0  0  0
 27 51  1  0  0  0  0
 28 52  1  0  0  0  0
 29 31  2  0  0  0  0
 29 53  1  0  0  0  0
 30 31  1  0  0  0  0
 30 54  1  0  0  0  0
M  END
> <PUBCHEM_COMPOUND_CID>
56589562

> <PUBCHEM_COMPOUND_CANONICALIZED>
1

> <PUBCHEM_CACTVS_COMPLEXITY>
666

> <PUBCHEM_CACTVS_HBOND_ACCEPTOR>
5

> <PUBCHEM_CACTVS_HBOND_DONOR>
1

> <PUBCHEM_CACTVS_ROTATABLE_BOND>
4

> <PUBCHEM_CACTVS_SUBSKEYS>
AAADceB7MQAAAAAAAAAAAAAAAAAAAAAAAAA8YMECAAAAAACB0AAAHwAQAAAADCzBmgw9tpLIFACoArJ3ZACCiCk1IiAJ2KE+bNiMJnbEvZuGOWjs8BPI6ae4yPCOAAAAAAAIAAAAAAAAABAAAAAAAAAAAA==

> <PUBCHEM_IUPAC_OPENEYE_NAME>
2-[2-(cyclohexylamino)-4-pyridyl]-3-(4-fluorophenyl)chromen-4-one

> <PUBCHEM_IUPAC_CAS_NAME>
2-[2-(cyclohexylamino)-4-pyridinyl]-3-(4-fluorophenyl)-1-benzopyran-4-one

> <PUBCHEM_IUPAC_NAME>
2-[2-(cyclohexylamino)pyridin-4-yl]-3-(4-fluorophenyl)chromen-4-one

> <PUBCHEM_IUPAC_SYSTEMATIC_NAME>
2-[2-(cyclohexylamino)pyridin-4-yl]-3-(4-fluorophenyl)chromen-4-one

> <PUBCHEM_IUPAC_TRADITIONAL_NAME>
2-[2-(cyclohexylamino)-4-pyridyl]-3-(4-fluorophenyl)chromone

> <PUBCHEM_IUPAC_INCHI>
InChI=1S/C26H23FN2O2/c27-19-12-10-17(11-13-19)24-25(30)21-8-4-5-9-22(21)31-26(24)18-14-15-28-23(16-18)29-20-6-2-1-3-7-20/h4-5,8-16,20H,1-3,6-7H2,(H,28,29)

> <PUBCHEM_IUPAC_INCHIKEY>
HQDPHFZRESEGCF-UHFFFAOYSA-N

> <PUBCHEM_XLOGP3_AA>
6

> <PUBCHEM_EXACT_MASS>
414.174

> <PUBCHEM_MOLECULAR_FORMULA>
C26H23FN2O2

> <PUBCHEM_MOLECULAR_WEIGHT>
414.48

> <PUBCHEM_OPENEYE_CAN_SMILES>
C1CCC(CC1)NC2=NC=CC(=C2)C3=C(C(=O)C4=CC=CC=C4O3)C5=CC=C(C=C5)F

> <PUBCHEM_OPENEYE_ISO_SMILES>
C1CCC(CC1)NC2=NC=CC(=C2)C3=C(C(=O)C4=CC=CC=C4O3)C5=CC=C(C=C5)F

> <PUBCHEM_CACTVS_TPSA>
51.2

> <PUBCHEM_MONOISOTOPIC_WEIGHT>
414.174

> <PUBCHEM_TOTAL_CHARGE>
0

> <PUBCHEM_HEAVY_ATOM_COUNT>
31

> <PUBCHEM_ATOM_DEF_STEREO_COUNT>
0

> <PUBCHEM_ATOM_UDEF_STEREO_COUNT>
0

> <PUBCHEM_BOND_DEF_STEREO_COUNT>
0

> <PUBCHEM_BOND_UDEF_STEREO_COUNT>
0

> <PUBCHEM_ISOTOPIC_ATOM_COUNT>
0

> <PUBCHEM_COMPONENT_COUNT>
1

> <PUBCHEM_CACTVS_TAUTO_COUNT>
2

> <PUBCHEM_COORDINATE_TYPE>
1
5
255

> <PUBCHEM_BONDANNOTATIONS>
12  13  8
13  14  8
14  16  8
15  17  8
16  18  8
17  19  8
19  20  8
2  15  8
2  21  8
20  21  8
20  23  8
21  24  8
22  25  8
22  26  8
23  27  8
24  28  8
25  29  8
26  30  8
27  28  8
29  31  8
30  31  8
5  12  8
5  18  8

$$$$
118715573
  -OEChem-11021605012D

 50 54  0     0  0  0  0  0  0999 V2000
   11.6845   -3.9358    0.0000 Cl  0  0  0  0  0  0  0  0  0  0  0  0
    7.2997   -2.6041    0.0000 O   0  0  0  0  0  0  0  0  0  0  0  0
    6.3981    0.3209    0.0000 N   0  0  0  0  0  0  0  0  0  0  0  0
    6.5026   -0.6736    0.0000 N   0  0  0  0  0  0  0  0  0  0  0  0
    4.6660    0.3209    0.0000 N   0  0  0  0  0  0  0  0  0  0  0  0
    8.8820   -1.8996    0.0000 N   0  0  0  0  0  0  0  0  0  0  0  0
   10.1022   -4.6402    0.0000 N   0  0  0  0  0  0  0  0  0  0  0  0
    7.3116    0.7276    0.0000 C   0  0  0  0  0  0  0  0  0  0  0  0
    7.5195    1.7058    0.0000 C   0  0  0  0  0  0  0  0  0  0  0  0
    5.5321    0.8209    0.0000 C   0  0  0  0  0  0  0  0  0  0  0  0
    7.9808   -0.0155    0.0000 C   0  0  0  0  0  0  0  0  0  0  0  0
    7.4808   -0.8815    0.0000 C   0  0  0  0  0  0  0  0  0  0  0  0
    3.8000    1.8209    0.0000 C   0  0  0  0  0  0  0  0  0  0  0  0
    8.4706    2.0148    0.0000 C   0  0  0  0  0  0  0  0  0  0  0  0
    6.7764    2.3749    0.0000 C   0  0  0  0  0  0  0  0  0  0  0  0
    3.8000    0.8209    0.0000 C   0  0  0  0  0  0  0  0  0  0  0  0
    5.5321    1.8209    0.0000 C   0  0  0  0  0  0  0  0  0  0  0  0
    4.6660    2.3209    0.0000 C   0  0  0  0  0  0  0  0  0  0  0  0
    7.9354    3.6621    0.0000 C   0  0  0  0  0  0  0  0  0  0  0  0
    8.6785    2.9930    0.0000 C   0  0  0  0  0  0  0  0  0  0  0  0
    6.9843    3.3531    0.0000 C   0  0  0  0  0  0  0  0  0  0  0  0
    7.8875   -1.7951    0.0000 C   0  0  0  0  0  0  0  0  0  0  0  0
    2.9061    2.3556    0.0000 C   0  0  0  0  0  0  0  0  0  0  0  0
    2.9061    0.2862    0.0000 C   0  0  0  0  0  0  0  0  0  0  0  0
    8.1433    4.6402    0.0000 C   0  0  0  0  0  0  0  0  0  0  0  0
    2.0000    1.8417    0.0000 C   0  0  0  0  0  0  0  0  0  0  0  0
    2.0000    0.8001    0.0000 C   0  0  0  0  0  0  0  0  0  0  0  0
    9.2888   -2.8131    0.0000 C   0  0  0  0  0  0  0  0  0  0  0  0
   10.2833   -2.9177    0.0000 C   0  0  0  0  0  0  0  0  0  0  0  0
    8.7010   -3.6222    0.0000 C   0  0  0  0  0  0  0  0  0  0  0  0
   10.6900   -3.8312    0.0000 C   0  0  0  0  0  0  0  0  0  0  0  0
    9.1077   -4.5357    0.0000 C   0  0  0  0  0  0  0  0  0  0  0  0
    8.5974    0.0493    0.0000 H   0  0  0  0  0  0  0  0  0  0  0  0
    8.9314    1.6000    0.0000 H   0  0  0  0  0  0  0  0  0  0  0  0
    6.1867    2.1833    0.0000 H   0  0  0  0  0  0  0  0  0  0  0  0
    6.0690    2.1309    0.0000 H   0  0  0  0  0  0  0  0  0  0  0  0
    4.6660    2.9409    0.0000 H   0  0  0  0  0  0  0  0  0  0  0  0
    9.2682    3.1846    0.0000 H   0  0  0  0  0  0  0  0  0  0  0  0
    6.5236    3.7679    0.0000 H   0  0  0  0  0  0  0  0  0  0  0  0
    2.9132    2.9755    0.0000 H   0  0  0  0  0  0  0  0  0  0  0  0
    2.9132   -0.3337    0.0000 H   0  0  0  0  0  0  0  0  0  0  0  0
    8.7497    4.5113    0.0000 H   0  0  0  0  0  0  0  0  0  0  0  0
    8.2722    5.2467    0.0000 H   0  0  0  0  0  0  0  0  0  0  0  0
    7.5368    4.7691    0.0000 H   0  0  0  0  0  0  0  0  0  0  0  0
    9.2464   -1.3980    0.0000 H   0  0  0  0  0  0  0  0  0  0  0  0
    1.4643    2.1538    0.0000 H   0  0  0  0  0  0  0  0  0  0  0  0
    1.4643    0.4880    0.0000 H   0  0  0  0  0  0  0  0  0  0  0  0
   10.6477   -2.4161    0.0000 H   0  0  0  0  0  0  0  0  0  0  0  0
    8.0844   -3.5574    0.0000 H   0  0  0  0  0  0  0  0  0  0  0  0
    8.7433   -5.0373    0.0000 H   0  0  0  0  0  0  0  0  0  0  0  0
  1 31  1  0  0  0  0
  2 22  2  0  0  0  0
  3  4  1  0  0  0  0
  3  8  1  0  0  0  0
  3 10  1  0  0  0  0
  4 12  2  0  0  0  0
  5 10  2  0  0  0  0
  5 16  1  0  0  0  0
  6 22  1  0  0  0  0
  6 28  1  0  0  0  0
  6 45  1  0  0  0  0
  7 31  2  0  0  0  0
  7 32  1  0  0  0  0
  8  9  1  0  0  0  0
  8 11  2  0  0  0  0
  9 14  2  0  0  0  0
  9 15  1  0  0  0  0
 10 17  1  0  0  0  0
 11 12  1  0  0  0  0
 11 33  1  0  0  0  0
 12 22  1  0  0  0  0
 13 16  1  0  0  0  0
 13 18  1  0  0  0  0
 13 23  2  0  0  0  0
 14 20  1  0  0  0  0
 14 34  1  0  0  0  0
 15 21  2  0  0  0  0
 15 35  1  0  0  0  0
 16 24  2  0  0  0  0
 17 18  2  0  0  0  0
 17 36  1  0  0  0  0
 18 37  1  0  0  0  0
 19 20  2  0  0  0  0
 19 21  1  0  0  0  0
 19 25  1  0  0  0  0
 20 38  1  0  0  0  0
 21 39  1  0  0  0  0
 23 26  1  0  0  0  0
 23 40  1  0  0  0  0
 24 27  1  0  0  0  0
 24 41  1  0  0  0  0
 25 42  1  0  0  0  0
 25 43  1  0  0  0  0
 25 44  1  0  0  0  0
 26 27  2  0  0  0  0
 26 46  1  0  0  0  0
 27 47  1  0  0  0  0
 28 29  2  0  0  0  0
 28 30  1  0  0  0  0
 29 31  1  0  0  0  0
 29 48  1  0  0  0  0
 30 32  2  0  0  0  0
 30 49  1  0  0  0  0
 32 50  1  0  0  0  0
M  END
> <PUBCHEM_COMPOUND_CID>
118715573

> <PUBCHEM_COMPOUND_CANONICALIZED>
1

> <PUBCHEM_CACTVS_COMPLEXITY>
642

> <PUBCHEM_CACTVS_HBOND_ACCEPTOR>
4

> <PUBCHEM_CACTVS_HBOND_DONOR>
1

> <PUBCHEM_CACTVS_ROTATABLE_BOND>
4

> <PUBCHEM_CACTVS_SUBSKEYS>
AAADceB7oAAEAAAAAAAAAAAAAAAAAWAAAAA8eIEAAAAAAACx/gAAHgIYAAAADArBniQ/8PLIEACqAzd3dACShCk3ByAd2CG4ZtiIYPLB39GUpQhonALIyacciMCOQAAAAAACAACAAAAAAAQAAAAAAAAAAA==

> <PUBCHEM_IUPAC_OPENEYE_NAME>
N-(2-chloro-4-pyridyl)-5-(p-tolyl)-1-(2-quinolyl)pyrazole-3-carboxamide

> <PUBCHEM_IUPAC_CAS_NAME>
N-(2-chloro-4-pyridinyl)-5-(4-methylphenyl)-1-(2-quinolinyl)-3-pyrazolecarboxamide

> <PUBCHEM_IUPAC_NAME>
N-(2-chloropyridin-4-yl)-5-(4-methylphenyl)-1-quinolin-2-ylpyrazole-3-carboxamide

> <PUBCHEM_IUPAC_SYSTEMATIC_NAME>
N-(2-chloranylpyridin-4-yl)-5-(4-methylphenyl)-1-quinolin-2-yl-pyrazole-3-carboxamide

> <PUBCHEM_IUPAC_TRADITIONAL_NAME>
N-(2-chloro-4-pyridyl)-5-(p-tolyl)-1-(2-quinolyl)pyrazole-3-carboxamide

> <PUBCHEM_IUPAC_INCHI>
InChI=1S/C25H18ClN5O/c1-16-6-8-18(9-7-16)22-15-21(25(32)28-19-12-13-27-23(26)14-19)30-31(22)24-11-10-17-4-2-3-5-20(17)29-24/h2-15H,1H3,(H,27,28,32)

> <PUBCHEM_IUPAC_INCHIKEY>
OSQRKWSIYAVQQD-UHFFFAOYSA-N

> <PUBCHEM_XLOGP3_AA>
5.6

> <PUBCHEM_EXACT_MASS>
439.12

> <PUBCHEM_MOLECULAR_FORMULA>
C25H18ClN5O

> <PUBCHEM_MOLECULAR_WEIGHT>
439.903

> <PUBCHEM_OPENEYE_CAN_SMILES>
CC1=CC=C(C=C1)C2=CC(=NN2C3=NC4=CC=CC=C4C=C3)C(=O)NC5=CC(=NC=C5)Cl

> <PUBCHEM_OPENEYE_ISO_SMILES>
CC1=CC=C(C=C1)C2=CC(=NN2C3=NC4=CC=CC=C4C=C3)C(=O)NC5=CC(=NC=C5)Cl

> <PUBCHEM_CACTVS_TPSA>
72.7

> <PUBCHEM_MONOISOTOPIC_WEIGHT>
439.12

> <PUBCHEM_TOTAL_CHARGE>
0

> <PUBCHEM_HEAVY_ATOM_COUNT>
32

> <PUBCHEM_ATOM_DEF_STEREO_COUNT>
0

> <PUBCHEM_ATOM_UDEF_STEREO_COUNT>
0

> <PUBCHEM_BOND_DEF_STEREO_COUNT>
0

> <PUBCHEM_BOND_UDEF_STEREO_COUNT>
0

> <PUBCHEM_ISOTOPIC_ATOM_COUNT>
0

> <PUBCHEM_COMPONENT_COUNT>
1

> <PUBCHEM_CACTVS_TAUTO_COUNT>
20

> <PUBCHEM_COORDINATE_TYPE>
1
5
255

> <PUBCHEM_BONDANNOTATIONS>
10  17  8
11  12  8
13  16  8
13  18  8
13  23  8
14  20  8
15  21  8
16  24  8
17  18  8
19  20  8
19  21  8
23  26  8
24  27  8
26  27  8
28  29  8
28  30  8
29  31  8
3  4  8
3  8  8
30  32  8
4  12  8
5  10  8
5  16  8
7  31  8
7  32  8
8  11  8
9  14  8
9  15  8

$$$$
90667370
  -OEChem-11021605012D

 40 43  0     0  0  0  0  0  0999 V2000
    2.0000    0.5935    0.0000 Cl  0  0  0  0  0  0  0  0  0  0  0  0
    9.3850    2.7003    0.0000 O   0  0  0  0  0  0  0  0  0  0  0  0
    8.7260   -1.9065    0.0000 N   0  0  0  0  0  0  0  0  0  0  0  0
    8.1424   -2.7112    0.0000 N   0  0  0  0  0  0  0  0  0  0  0  0
    6.3301   -2.9065    0.0000 N   0  0  0  0  0  0  0  0  0  0  0  0
    5.4641    0.5935    0.0000 N   0  0  0  0  0  0  0  0  0  0  0  0
    7.1962   -1.4065    0.0000 C   0  0  0  0  0  0  0  0  0  0  0  0
    8.1424   -1.1018    0.0000 C   0  0  0  0  0  0  0  0  0  0  0  0
    5.4641   -1.4065    0.0000 C   0  0  0  0  0  0  0  0  0  0  0  0
    6.3301   -0.9065    0.0000 C   0  0  0  0  0  0  0  0  0  0  0  0
    7.1962   -2.4065    0.0000 C   0  0  0  0  0  0  0  0  0  0  0  0
    8.4530   -0.1513    0.0000 C   0  0  0  0  0  0  0  0  0  0  0  0
    4.5981   -0.9065    0.0000 C   0  0  0  0  0  0  0  0  0  0  0  0
    5.4641   -2.4065    0.0000 C   0  0  0  0  0  0  0  0  0  0  0  0
    4.5981    0.0935    0.0000 C   0  0  0  0  0  0  0  0  0  0  0  0
    7.7852    0.5930    0.0000 C   0  0  0  0  0  0  0  0  0  0  0  0
    9.4315    0.0550    0.0000 C   0  0  0  0  0  0  0  0  0  0  0  0
    3.7320   -1.4065    0.0000 C   0  0  0  0  0  0  0  0  0  0  0  0
    8.0958    1.5436    0.0000 C   0  0  0  0  0  0  0  0  0  0  0  0
    9.7422    1.0055    0.0000 C   0  0  0  0  0  0  0  0  0  0  0  0
    9.0744    1.7498    0.0000 C   0  0  0  0  0  0  0  0  0  0  0  0
    3.7320    0.5935    0.0000 C   0  0  0  0  0  0  0  0  0  0  0  0
    2.8660   -0.9065    0.0000 C   0  0  0  0  0  0  0  0  0  0  0  0
    2.8660    0.0935    0.0000 C   0  0  0  0  0  0  0  0  0  0  0  0
   10.3635    2.9065    0.0000 C   0  0  0  0  0  0  0  0  0  0  0  0
    6.3301   -0.2865    0.0000 H   0  0  0  0  0  0  0  0  0  0  0  0
    9.3460   -1.9065    0.0000 H   0  0  0  0  0  0  0  0  0  0  0  0
    4.9272   -2.7165    0.0000 H   0  0  0  0  0  0  0  0  0  0  0  0
    7.1785    0.4652    0.0000 H   0  0  0  0  0  0  0  0  0  0  0  0
    9.8456   -0.4065    0.0000 H   0  0  0  0  0  0  0  0  0  0  0  0
    3.7320   -2.0265    0.0000 H   0  0  0  0  0  0  0  0  0  0  0  0
    7.6818    2.0050    0.0000 H   0  0  0  0  0  0  0  0  0  0  0  0
   10.3489    1.1333    0.0000 H   0  0  0  0  0  0  0  0  0  0  0  0
    3.7320    1.2135    0.0000 H   0  0  0  0  0  0  0  0  0  0  0  0
    2.3291   -1.2165    0.0000 H   0  0  0  0  0  0  0  0  0  0  0  0
    5.4641    1.2135    0.0000 H   0  0  0  0  0  0  0  0  0  0  0  0
    6.0010    0.2835    0.0000 H   0  0  0  0  0  0  0  0  0  0  0  0
   10.4914    2.2998    0.0000 H   0  0  0  0  0  0  0  0  0  0  0  0
   10.9702    3.0344    0.0000 H   0  0  0  0  0  0  0  0  0  0  0  0
   10.2357    3.5132    0.0000 H   0  0  0  0  0  0  0  0  0  0  0  0
  1 24  1  0  0  0  0
  2 21  1  0  0  0  0
  2 25  1  0  0  0  0
  3  4  1  0  0  0  0
  3  8  1  0  0  0  0
  3 27  1  0  0  0  0
  4 11  2  0  0  0  0
  5 11  1  0  0  0  0
  5 14  2  0  0  0  0
  6 15  1  0  0  0  0
  6 36  1  0  0  0  0
  6 37  1  0  0  0  0
  7  8  2  0  0  0  0
  7 10  1  0  0  0  0
  7 11  1  0  0  0  0
  8 12  1  0  0  0  0
  9 10  2  0  0  0  0
  9 13  1  0  0  0  0
  9 14  1  0  0  0  0
 10 26  1  0  0  0  0
 12 16  2  0  0  0  0
 12 17  1  0  0  0  0
 13 15  2  0  0  0  0
 13 18  1  0  0  0  0
 14 28  1  0  0  0  0
 15 22  1  0  0  0  0
 16 19  1  0  0  0  0
 16 29  1  0  0  0  0
 17 20  2  0  0  0  0
 17 30  1  0  0  0  0
 18 23  2  0  0  0  0
 18 31  1  0  0  0  0
 19 21  2  0  0  0  0
 19 32  1  0  0  0  0
 20 21  1  0  0  0  0
 20 33  1  0  0  0  0
 22 24  2  0  0  0  0
 22 34  1  0  0  0  0
 23 24  1  0  0  0  0
 23 35  1  0  0  0  0
 25 38  1  0  0  0  0
 25 39  1  0  0  0  0
 25 40  1  0  0  0  0
M  END
> <PUBCHEM_COMPOUND_CID>
90667370

> <PUBCHEM_COMPOUND_CANONICALIZED>
1

> <PUBCHEM_CACTVS_COMPLEXITY>
445

> <PUBCHEM_CACTVS_HBOND_ACCEPTOR>
4

> <PUBCHEM_CACTVS_HBOND_DONOR>
2

> <PUBCHEM_CACTVS_ROTATABLE_BOND>
3

> <PUBCHEM_CACTVS_SUBSKEYS>
AAADccB7oAAEAAAAAAAAAAAAAAAAAWAAAAA8YIAAAAAAAFgB/AAAHgIYAAAADA7BnyY/9t5rFACiAzZnZACSjCsxJ6Ad+SAubpiMLuLF+9uEtChk2BPI6CeQ0OEOpAAAAAICAABIAAAABAQAAAAAAAAAAA==

> <PUBCHEM_IUPAC_OPENEYE_NAME>
5-chloro-2-[3-(4-methoxyphenyl)-2H-pyrazolo[3,4-b]pyridin-5-yl]aniline

> <PUBCHEM_IUPAC_CAS_NAME>
5-chloro-2-[3-(4-methoxyphenyl)-2H-pyrazolo[3,4-b]pyridin-5-yl]aniline

> <PUBCHEM_IUPAC_NAME>
5-chloro-2-[3-(4-methoxyphenyl)-2H-pyrazolo[3,4-b]pyridin-5-yl]aniline

> <PUBCHEM_IUPAC_SYSTEMATIC_NAME>
5-chloranyl-2-[3-(4-methoxyphenyl)-2H-pyrazolo[3,4-b]pyridin-5-yl]aniline

> <PUBCHEM_IUPAC_TRADITIONAL_NAME>
[5-chloro-2-[3-(4-methoxyphenyl)-2H-pyrazolo[3,4-b]pyridin-5-yl]phenyl]amine

> <PUBCHEM_IUPAC_INCHI>
InChI=1S/C19H15ClN4O/c1-25-14-5-2-11(3-6-14)18-16-8-12(10-22-19(16)24-23-18)15-7-4-13(20)9-17(15)21/h2-10H,21H2,1H3,(H,22,23,24)

> <PUBCHEM_IUPAC_INCHIKEY>
FUFAFGVWPUJZAP-UHFFFAOYSA-N

> <PUBCHEM_XLOGP3_AA>
4

> <PUBCHEM_EXACT_MASS>
350.093

> <PUBCHEM_MOLECULAR_FORMULA>
C19H15ClN4O

> <PUBCHEM_MOLECULAR_WEIGHT>
350.806

> <PUBCHEM_OPENEYE_CAN_SMILES>
COC1=CC=C(C=C1)C2=C3C=C(C=NC3=NN2)C4=C(C=C(C=C4)Cl)N

> <PUBCHEM_OPENEYE_ISO_SMILES>
COC1=CC=C(C=C1)C2=C3C=C(C=NC3=NN2)C4=C(C=C(C=C4)Cl)N

> <PUBCHEM_CACTVS_TPSA>
76.8

> <PUBCHEM_MONOISOTOPIC_WEIGHT>
350.093

> <PUBCHEM_TOTAL_CHARGE>
0

> <PUBCHEM_HEAVY_ATOM_COUNT>
25

> <PUBCHEM_ATOM_DEF_STEREO_COUNT>
0

> <PUBCHEM_ATOM_UDEF_STEREO_COUNT>
0

> <PUBCHEM_BOND_DEF_STEREO_COUNT>
0

> <PUBCHEM_BOND_UDEF_STEREO_COUNT>
0

> <PUBCHEM_ISOTOPIC_ATOM_COUNT>
0

> <PUBCHEM_COMPONENT_COUNT>
1

> <PUBCHEM_CACTVS_TAUTO_COUNT>
3

> <PUBCHEM_COORDINATE_TYPE>
1
5
255

> <PUBCHEM_BONDANNOTATIONS>
12  16  8
12  17  8
13  15  8
13  18  8
15  22  8
16  19  8
17  20  8
18  23  8
19  21  8
20  21  8
22  24  8
23  24  8
3  4  8
3  8  8
4  11  8
5  11  8
5  14  8
7  10  8
7  11  8
7  8  8
9  10  8
9  14  8

$$$$
1474853
  -OEChem-11021605012D

 47 50  0     0  0  0  0  0  0999 V2000
    2.8660    1.5372    0.0000 O   0  0  0  0  0  0  0  0  0  0  0  0
    2.8660    3.5372    0.0000 O   0  0  0  0  0  0  0  0  0  0  0  0
    9.7872   -1.5374    0.0000 O   0  0  0  0  0  0  0  0  0  0  0  0
    6.3465    0.5026    0.0000 N   0  0  0  0  0  0  0  0  0  0  0  0
    6.3580    3.5718    0.0000 N   0  0  0  0  0  0  0  0  0  0  0  0
    7.2641    2.0163    0.0000 N   0  0  0  0  0  0  0  0  0  0  0  0
    5.4641    2.0372    0.0000 C   0  0  0  0  0  0  0  0  0  0  0  0
    5.4641    3.0372    0.0000 C   0  0  0  0  0  0  0  0  0  0  0  0
    6.3580    1.5025    0.0000 C   0  0  0  0  0  0  0  0  0  0  0  0
    4.5981    1.5372    0.0000 C   0  0  0  0  0  0  0  0  0  0  0  0
    3.7320    2.0372    0.0000 C   0  0  0  0  0  0  0  0  0  0  0  0
    4.5981    3.5372    0.0000 C   0  0  0  0  0  0  0  0  0  0  0  0
    3.7320    3.0372    0.0000 C   0  0  0  0  0  0  0  0  0  0  0  0
    7.2067   -0.0074    0.0000 C   0  0  0  0  0  0  0  0  0  0  0  0
    7.1951   -1.0074    0.0000 C   0  0  0  0  0  0  0  0  0  0  0  0
    8.0784    0.4825    0.0000 C   0  0  0  0  0  0  0  0  0  0  0  0
    8.9270   -1.0274    0.0000 C   0  0  0  0  0  0  0  0  0  0  0  0
    8.0553   -1.5173    0.0000 C   0  0  0  0  0  0  0  0  0  0  0  0
    8.9386   -0.0274    0.0000 C   0  0  0  0  0  0  0  0  0  0  0  0
    7.2641    3.0580    0.0000 C   0  0  0  0  0  0  0  0  0  0  0  0
    9.7757   -2.5373    0.0000 C   0  0  0  0  0  0  0  0  0  0  0  0
    2.0000    2.0372    0.0000 C   0  0  0  0  0  0  0  0  0  0  0  0
    2.8660    4.5372    0.0000 C   0  0  0  0  0  0  0  0  0  0  0  0
    8.9039   -3.0272    0.0000 C   0  0  0  0  0  0  0  0  0  0  0  0
   10.6358   -3.0473    0.0000 C   0  0  0  0  0  0  0  0  0  0  0  0
    8.8924   -4.0272    0.0000 C   0  0  0  0  0  0  0  0  0  0  0  0
   10.6243   -4.0472    0.0000 C   0  0  0  0  0  0  0  0  0  0  0  0
    9.7525   -4.5372    0.0000 C   0  0  0  0  0  0  0  0  0  0  0  0
    4.5981    0.9172    0.0000 H   0  0  0  0  0  0  0  0  0  0  0  0
    4.5981    4.1572    0.0000 H   0  0  0  0  0  0  0  0  0  0  0  0
    5.8060    0.1988    0.0000 H   0  0  0  0  0  0  0  0  0  0  0  0
    6.6546   -1.3111    0.0000 H   0  0  0  0  0  0  0  0  0  0  0  0
    8.0856    1.1025    0.0000 H   0  0  0  0  0  0  0  0  0  0  0  0
    8.0481   -2.1373    0.0000 H   0  0  0  0  0  0  0  0  0  0  0  0
    9.4791    0.2763    0.0000 H   0  0  0  0  0  0  0  0  0  0  0  0
    7.7998    3.3700    0.0000 H   0  0  0  0  0  0  0  0  0  0  0  0
    2.3100    2.5741    0.0000 H   0  0  0  0  0  0  0  0  0  0  0  0
    1.4631    2.3472    0.0000 H   0  0  0  0  0  0  0  0  0  0  0  0
    1.6900    1.5002    0.0000 H   0  0  0  0  0  0  0  0  0  0  0  0
    3.4860    4.5372    0.0000 H   0  0  0  0  0  0  0  0  0  0  0  0
    2.8660    5.1572    0.0000 H   0  0  0  0  0  0  0  0  0  0  0  0
    2.2460    4.5372    0.0000 H   0  0  0  0  0  0  0  0  0  0  0  0
    8.3706   -2.7111    0.0000 H   0  0  0  0  0  0  0  0  0  0  0  0
   11.1763   -2.7435    0.0000 H   0  0  0  0  0  0  0  0  0  0  0  0
    8.3519   -4.3309    0.0000 H   0  0  0  0  0  0  0  0  0  0  0  0
   11.1576   -4.3634    0.0000 H   0  0  0  0  0  0  0  0  0  0  0  0
    9.7454   -5.1571    0.0000 H   0  0  0  0  0  0  0  0  0  0  0  0
  1 11  1  0  0  0  0
  1 22  1  0  0  0  0
  2 13  1  0  0  0  0
  2 23  1  0  0  0  0
  3 17  1  0  0  0  0
  3 21  1  0  0  0  0
  4  9  1  0  0  0  0
  4 14  1  0  0  0  0
  4 31  1  0  0  0  0
  5  8  1  0  0  0  0
  5 20  2  0  0  0  0
  6  9  2  0  0  0  0
  6 20  1  0  0  0  0
  7  8  1  0  0  0  0
  7  9  1  0  0  0  0
  7 10  2  0  0  0  0
  8 12  2  0  0  0  0
 10 11  1  0  0  0  0
 10 29  1  0  0  0  0
 11 13  2  0  0  0  0
 12 13  1  0  0  0  0
 12 30  1  0  0  0  0
 14 15  2  0  0  0  0
 14 16  1  0  0  0  0
 15 18  1  0  0  0  0
 15 32  1  0  0  0  0
 16 19  2  0  0  0  0
 16 33  1  0  0  0  0
 17 18  2  0  0  0  0
 17 19  1  0  0  0  0
 18 34  1  0  0  0  0
 19 35  1  0  0  0  0
 20 36  1  0  0  0  0
 21 24  2  0  0  0  0
 21 25  1  0  0  0  0
 22 37  1  0  0  0  0
 22 38  1  0  0  0  0
 22 39  1  0  0  0  0
 23 40  1  0  0  0  0
 23 41  1  0  0  0  0
 23 42  1  0  0  0  0
 24 26  1  0  0  0  0
 24 43  1  0  0  0  0
 25 27  2  0  0  0  0
 25 44  1  0  0  0  0
 26 28  2  0  0  0  0
 26 45  1  0  0  0  0
 27 28  1  0  0  0  0
 27 46  1  0  0  0  0
 28 47  1  0  0  0  0
M  END
> <PUBCHEM_COMPOUND_CID>
1474853

> <PUBCHEM_COMPOUND_CANONICALIZED>
1

> <PUBCHEM_CACTVS_COMPLEXITY>
466

> <PUBCHEM_CACTVS_HBOND_ACCEPTOR>
6

> <PUBCHEM_CACTVS_HBOND_DONOR>
1

> <PUBCHEM_CACTVS_ROTATABLE_BOND>
6

> <PUBCHEM_CACTVS_SUBSKEYS>
AAADceB7MAAAAAAAAAAAAAAAAAAAAAAAAAA8YMEAAAAAAACx9AAAHgAQAAAADAyBngY39vbIFACgAyZjZACCiCkxIqAJ2CA+7JiNLuLE+duGPCru0BvK6Cew0BMOIEABAgACQABAgAIEAASAAAAAAAAAAA==

> <PUBCHEM_IUPAC_OPENEYE_NAME>
6,7-dimethoxy-N-(4-phenoxyphenyl)quinazolin-4-amine

> <PUBCHEM_IUPAC_CAS_NAME>
6,7-dimethoxy-N-(4-phenoxyphenyl)-4-quinazolinamine

> <PUBCHEM_IUPAC_NAME>
6,7-dimethoxy-N-(4-phenoxyphenyl)quinazolin-4-amine

> <PUBCHEM_IUPAC_SYSTEMATIC_NAME>
6,7-dimethoxy-N-(4-phenoxyphenyl)quinazolin-4-amine

> <PUBCHEM_IUPAC_TRADITIONAL_NAME>
(6,7-dimethoxyquinazolin-4-yl)-(4-phenoxyphenyl)amine

> <PUBCHEM_IUPAC_INCHI>
InChI=1S/C22H19N3O3/c1-26-20-12-18-19(13-21(20)27-2)23-14-24-22(18)25-15-8-10-17(11-9-15)28-16-6-4-3-5-7-16/h3-14H,1-2H3,(H,23,24,25)

> <PUBCHEM_IUPAC_INCHIKEY>
DMWVGXGXHPOEPT-UHFFFAOYSA-N

> <PUBCHEM_XLOGP3_AA>
4.9

> <PUBCHEM_EXACT_MASS>
373.143

> <PUBCHEM_MOLECULAR_FORMULA>
C22H19N3O3

> <PUBCHEM_MOLECULAR_WEIGHT>
373.412

> <PUBCHEM_OPENEYE_CAN_SMILES>
COC1=C(C=C2C(=C1)C(=NC=N2)NC3=CC=C(C=C3)OC4=CC=CC=C4)OC

> <PUBCHEM_OPENEYE_ISO_SMILES>
COC1=C(C=C2C(=C1)C(=NC=N2)NC3=CC=C(C=C3)OC4=CC=CC=C4)OC

> <PUBCHEM_CACTVS_TPSA>
65.5

> <PUBCHEM_MONOISOTOPIC_WEIGHT>
373.143

> <PUBCHEM_TOTAL_CHARGE>
0

> <PUBCHEM_HEAVY_ATOM_COUNT>
28

> <PUBCHEM_ATOM_DEF_STEREO_COUNT>
0

> <PUBCHEM_ATOM_UDEF_STEREO_COUNT>
0

> <PUBCHEM_BOND_DEF_STEREO_COUNT>
0

> <PUBCHEM_BOND_UDEF_STEREO_COUNT>
0

> <PUBCHEM_ISOTOPIC_ATOM_COUNT>
0

> <PUBCHEM_COMPONENT_COUNT>
1

> <PUBCHEM_CACTVS_TAUTO_COUNT>
3

> <PUBCHEM_COORDINATE_TYPE>
1
5
255

> <PUBCHEM_BONDANNOTATIONS>
10  11  8
11  13  8
12  13  8
14  15  8
14  16  8
15  18  8
16  19  8
17  18  8
17  19  8
21  24  8
21  25  8
24  26  8
25  27  8
26  28  8
27  28  8
5  20  8
5  8  8
6  20  8
6  9  8
7  10  8
7  8  8
7  9  8
8  12  8

$$$$
73293
  -OEChem-11021605012D

 32 36  0     0  0  0  0  0  0999 V2000
    5.3979   -2.1909    0.0000 O   0  0  0  0  0  0  0  0  0  0  0  0
    6.7226    0.0252    0.0000 N   0  3  0  0  0  0  0  0  0  0  0  0
    4.0443   -0.2795    0.0000 N   0  0  0  0  0  0  0  0  0  0  0  0
    5.8565   -0.4748    0.0000 C   0  0  0  0  0  0  0  0  0  0  0  0
    4.9905    0.0252    0.0000 C   0  0  0  0  0  0  0  0  0  0  0  0
    4.9905    1.0252    0.0000 C   0  0  0  0  0  0  0  0  0  0  0  0
    7.4596   -0.6419    0.0000 C   0  0  0  0  0  0  0  0  0  0  0  0
    4.0443    1.3299    0.0000 C   0  0  0  0  0  0  0  0  0  0  0  0
    7.0544   -1.5497    0.0000 C   0  0  0  0  0  0  0  0  0  0  0  0
    3.4607    0.5252    0.0000 C   0  0  0  0  0  0  0  0  0  0  0  0
    6.0657   -1.4466    0.0000 C   0  0  0  0  0  0  0  0  0  0  0  0
    6.7226    1.0252    0.0000 C   0  0  0  0  0  0  0  0  0  0  0  0
    5.8565    1.5252    0.0000 C   0  0  0  0  0  0  0  0  0  0  0  0
    8.4877   -0.5187    0.0000 C   0  0  0  0  0  0  0  0  0  0  0  0
    3.6369    2.2819    0.0000 C   0  0  0  0  0  0  0  0  0  0  0  0
    7.6494   -2.3972    0.0000 C   0  0  0  0  0  0  0  0  0  0  0  0
    2.4293    0.6166    0.0000 C   0  0  0  0  0  0  0  0  0  0  0  0
    9.1020   -1.3522    0.0000 C   0  0  0  0  0  0  0  0  0  0  0  0
    2.6079    2.3972    0.0000 C   0  0  0  0  0  0  0  0  0  0  0  0
    8.6800   -2.2978    0.0000 C   0  0  0  0  0  0  0  0  0  0  0  0
    2.0000    1.5590    0.0000 C   0  0  0  0  0  0  0  0  0  0  0  0
    3.8517   -0.8689    0.0000 H   0  0  0  0  0  0  0  0  0  0  0  0
    7.2595    1.3352    0.0000 H   0  0  0  0  0  0  0  0  0  0  0  0
    5.8565    2.1452    0.0000 H   0  0  0  0  0  0  0  0  0  0  0  0
    8.7338    0.0504    0.0000 H   0  0  0  0  0  0  0  0  0  0  0  0
    4.0067    2.7796    0.0000 H   0  0  0  0  0  0  0  0  0  0  0  0
    7.3902   -2.9604    0.0000 H   0  0  0  0  0  0  0  0  0  0  0  0
    2.0711    0.1106    0.0000 H   0  0  0  0  0  0  0  0  0  0  0  0
    9.7184   -1.2856    0.0000 H   0  0  0  0  0  0  0  0  0  0  0  0
    2.3574    2.9643    0.0000 H   0  0  0  0  0  0  0  0  0  0  0  0
    9.0421   -2.8011    0.0000 H   0  0  0  0  0  0  0  0  0  0  0  0
    1.3831    1.6208    0.0000 H   0  0  0  0  0  0  0  0  0  0  0  0
  1 11  2  0  0  0  0
  2  4  2  0  0  0  0
  2  7  1  0  0  0  0
  2 12  1  0  0  0  0
  3  5  1  0  0  0  0
  3 10  1  0  0  0  0
  3 22  1  0  0  0  0
  4  5  1  0  0  0  0
  4 11  1  0  0  0  0
  5  6  2  0  0  0  0
  6  8  1  0  0  0  0
  6 13  1  0  0  0  0
  7  9  1  0  0  0  0
  7 14  2  0  0  0  0
  8 10  1  0  0  0  0
  8 15  2  0  0  0  0
  9 11  1  0  0  0  0
  9 16  2  0  0  0  0
 10 17  2  0  0  0  0
 12 13  2  0  0  0  0
 12 23  1  0  0  0  0
 13 24  1  0  0  0  0
 14 18  1  0  0  0  0
 14 25  1  0  0  0  0
 15 19  1  0  0  0  0
 15 26  1  0  0  0  0
 16 20  1  0  0  0  0
 16 27  1  0  0  0  0
 17 21  1  0  0  0  0
 17 28  1  0  0  0  0
 18 20  2  0  0  0  0
 18 29  1  0  0  0  0
 19 21  2  0  0  0  0
 19 30  1  0  0  0  0
 20 31  1  0  0  0  0
 21 32  1  0  0  0  0
M  CHG  1   2   1
M  END
> <PUBCHEM_COMPOUND_CID>
73293

> <PUBCHEM_COMPOUND_CANONICALIZED>
1

> <PUBCHEM_CACTVS_COMPLEXITY>
451

> <PUBCHEM_CACTVS_HBOND_ACCEPTOR>
1

> <PUBCHEM_CACTVS_HBOND_DONOR>
1

> <PUBCHEM_CACTVS_ROTATABLE_BOND>
0

> <PUBCHEM_CACTVS_SUBSKEYS>
AAADccB7IAAAAAAAAAAAAAAAAAAAAWLAAAA8YIAAAAAAAFgB/gAAHgAQAAAADAzBngQ8wPPNkACoA7R3RACCgCQ3EiAI2SG4dNgIYPrAlbGUIYhgkADIyccYiMCOgAAAAAACAAAAAAAAAAQAAAAAAAAAAA==

> <PUBCHEM_IUPAC_TRADITIONAL_NAME>
12H-indolo[2,1-a]$b-carbolin-5-ium-13-one

> <PUBCHEM_IUPAC_INCHI>
InChI=1S/C18H10N2O/c21-18-13-6-2-4-8-15(13)20-10-9-12-11-5-1-3-7-14(11)19-16(12)17(18)20/h1-10H/p+1

> <PUBCHEM_IUPAC_INCHIKEY>
WYQIPCUPNMRAKP-UHFFFAOYSA-O

> <PUBCHEM_XLOGP3_AA>
4

> <PUBCHEM_EXACT_MASS>
271.087

> <PUBCHEM_MOLECULAR_FORMULA>
C18H11N2O+

> <PUBCHEM_MOLECULAR_WEIGHT>
271.299

> <PUBCHEM_OPENEYE_CAN_SMILES>
C1=CC=C2C(=C1)C3=C(N2)C4=[N+](C=C3)C5=CC=CC=C5C4=O

> <PUBCHEM_OPENEYE_ISO_SMILES>
C1=CC=C2C(=C1)C3=C(N2)C4=[N+](C=C3)C5=CC=CC=C5C4=O

> <PUBCHEM_CACTVS_TPSA>
36.7

> <PUBCHEM_MONOISOTOPIC_WEIGHT>
271.087

> <PUBCHEM_TOTAL_CHARGE>
1

> <PUBCHEM_HEAVY_ATOM_COUNT>
21

> <PUBCHEM_ATOM_DEF_STEREO_COUNT>
0

> <PUBCHEM_ATOM_UDEF_STEREO_COUNT>
0

> <PUBCHEM_BOND_DEF_STEREO_COUNT>
0

> <PUBCHEM_BOND_UDEF_STEREO_COUNT>
0

> <PUBCHEM_ISOTOPIC_ATOM_COUNT>
0

> <PUBCHEM_COMPONENT_COUNT>
1

> <PUBCHEM_CACTVS_TAUTO_COUNT>
3

> <PUBCHEM_COORDINATE_TYPE>
1
5
255

> <PUBCHEM_BONDANNOTATIONS>
10  17  8
12  13  8
14  18  8
15  19  8
16  20  8
17  21  8
18  20  8
19  21  8
2  12  8
2  4  8
3  10  8
3  5  8
4  5  8
5  6  8
6  13  8
6  8  8
7  14  8
7  9  8
8  10  8
8  15  8
9  16  8

$$$$
481747
  -OEChem-11021605012D

 32 34  0     0  0  0  0  0  0999 V2000
    9.0084   -0.8047    0.0000 S   0  0  0  0  0  0  0  0  0  0  0  0
    7.1962    2.0000    0.0000 O   0  0  0  0  0  0  0  0  0  0  0  0
    7.1962   -2.0000    0.0000 O   0  0  0  0  0  0  0  0  0  0  0  0
    5.4641    1.0000    0.0000 N   0  0  0  0  0  0  0  0  0  0  0  0
    9.0084    0.8047    0.0000 N   0  0  0  0  0  0  0  0  0  0  0  0
    6.3301    0.5000    0.0000 C   0  0  0  0  0  0  0  0  0  0  0  0
    8.0622    0.5000    0.0000 C   0  0  0  0  0  0  0  0  0  0  0  0
    8.0622   -0.5000    0.0000 C   0  0  0  0  0  0  0  0  0  0  0  0
    7.1962    1.0000    0.0000 C   0  0  0  0  0  0  0  0  0  0  0  0
    6.3301   -0.5000    0.0000 C   0  0  0  0  0  0  0  0  0  0  0  0
    4.5981    0.5000    0.0000 C   0  0  0  0  0  0  0  0  0  0  0  0
    7.1962   -1.0000    0.0000 C   0  0  0  0  0  0  0  0  0  0  0  0
    9.5920    0.0000    0.0000 C   0  0  0  0  0  0  0  0  0  0  0  0
    3.7320    1.0000    0.0000 C   0  0  0  0  0  0  0  0  0  0  0  0
    4.5981   -0.5000    0.0000 C   0  0  0  0  0  0  0  0  0  0  0  0
    2.8660   -0.5000    0.0000 C   0  0  0  0  0  0  0  0  0  0  0  0
    2.8660    0.5000    0.0000 C   0  0  0  0  0  0  0  0  0  0  0  0
    3.7320   -1.0000    0.0000 C   0  0  0  0  0  0  0  0  0  0  0  0
   10.5920    0.0000    0.0000 C   0  0  0  0  0  0  0  0  0  0  0  0
    2.0000   -1.0000    0.0000 C   0  0  0  0  0  0  0  0  0  0  0  0
    5.4641    1.6200    0.0000 H   0  0  0  0  0  0  0  0  0  0  0  0
    5.7932   -0.8100    0.0000 H   0  0  0  0  0  0  0  0  0  0  0  0
    3.7320    1.6200    0.0000 H   0  0  0  0  0  0  0  0  0  0  0  0
    5.1350   -0.8100    0.0000 H   0  0  0  0  0  0  0  0  0  0  0  0
    2.3291    0.8100    0.0000 H   0  0  0  0  0  0  0  0  0  0  0  0
    3.7320   -1.6200    0.0000 H   0  0  0  0  0  0  0  0  0  0  0  0
   10.5920   -0.6200    0.0000 H   0  0  0  0  0  0  0  0  0  0  0  0
   11.2120    0.0000    0.0000 H   0  0  0  0  0  0  0  0  0  0  0  0
   10.5920    0.6200    0.0000 H   0  0  0  0  0  0  0  0  0  0  0  0
    1.6900   -0.4631    0.0000 H   0  0  0  0  0  0  0  0  0  0  0  0
    1.4631   -1.3100    0.0000 H   0  0  0  0  0  0  0  0  0  0  0  0
    2.3100   -1.5369    0.0000 H   0  0  0  0  0  0  0  0  0  0  0  0
  1  8  1  0  0  0  0
  1 13  1  0  0  0  0
  2  9  2  0  0  0  0
  3 12  2  0  0  0  0
  4  6  1  0  0  0  0
  4 11  1  0  0  0  0
  4 21  1  0  0  0  0
  5  7  1  0  0  0  0
  5 13  2  0  0  0  0
  6  9  1  0  0  0  0
  6 10  2  0  0  0  0
  7  8  2  0  0  0  0
  7  9  1  0  0  0  0
  8 12  1  0  0  0  0
 10 12  1  0  0  0  0
 10 22  1  0  0  0  0
 11 14  2  0  0  0  0
 11 15  1  0  0  0  0
 13 19  1  0  0  0  0
 14 17  1  0  0  0  0
 14 23  1  0  0  0  0
 15 18  2  0  0  0  0
 15 24  1  0  0  0  0
 16 17  2  0  0  0  0
 16 18  1  0  0  0  0
 16 20  1  0  0  0  0
 17 25  1  0  0  0  0
 18 26  1  0  0  0  0
 19 27  1  0  0  0  0
 19 28  1  0  0  0  0
 19 29  1  0  0  0  0
 20 30  1  0  0  0  0
 20 31  1  0  0  0  0
 20 32  1  0  0  0  0
M  END
> <PUBCHEM_COMPOUND_CID>
481747

> <PUBCHEM_COMPOUND_CANONICALIZED>
1

> <PUBCHEM_CACTVS_COMPLEXITY>
455

> <PUBCHEM_CACTVS_HBOND_ACCEPTOR>
5

> <PUBCHEM_CACTVS_HBOND_DONOR>
1

> <PUBCHEM_CACTVS_ROTATABLE_BOND>
2

> <PUBCHEM_CACTVS_SUBSKEYS>
AAADccBzMABAAAAAAAAAAAAAAAAAAWAAAAAwQAAAAAAAAEABwAAAHgQQAAAADAyB3gAywZLIEAisA6RyRACC8KBnCjgImBWwZMgIIDrg0bGEIYhgkADoyccZgQAOCAAAAAAAAAAQAAAAAAAAAAAAAAAAAA==

> <PUBCHEM_IUPAC_OPENEYE_NAME>
2-methyl-5-(4-methylanilino)-1,3-benzothiazole-4,7-dione

> <PUBCHEM_IUPAC_CAS_NAME>
2-methyl-5-(4-methylanilino)-1,3-benzothiazole-4,7-dione

> <PUBCHEM_IUPAC_NAME>
2-methyl-5-(4-methylanilino)-1,3-benzothiazole-4,7-dione

> <PUBCHEM_IUPAC_SYSTEMATIC_NAME>
2-methyl-5-[(4-methylphenyl)amino]-1,3-benzothiazole-4,7-dione

> <PUBCHEM_IUPAC_TRADITIONAL_NAME>
2-methyl-5-(p-toluidino)-1,3-benzothiazole-4,7-quinone

> <PUBCHEM_IUPAC_INCHI>
InChI=1S/C15H12N2O2S/c1-8-3-5-10(6-4-8)17-11-7-12(18)15-13(14(11)19)16-9(2)20-15/h3-7,17H,1-2H3

> <PUBCHEM_IUPAC_INCHIKEY>
HFPLHASLIOXVGS-UHFFFAOYSA-N

> <PUBCHEM_XLOGP3_AA>
3.7

> <PUBCHEM_EXACT_MASS>
284.062

> <PUBCHEM_MOLECULAR_FORMULA>
C15H12N2O2S

> <PUBCHEM_MOLECULAR_WEIGHT>
284.333

> <PUBCHEM_OPENEYE_CAN_SMILES>
CC1=CC=C(C=C1)NC2=CC(=O)C3=C(C2=O)N=C(S3)C

> <PUBCHEM_OPENEYE_ISO_SMILES>
CC1=CC=C(C=C1)NC2=CC(=O)C3=C(C2=O)N=C(S3)C

> <PUBCHEM_CACTVS_TPSA>
87.3

> <PUBCHEM_MONOISOTOPIC_WEIGHT>
284.062

> <PUBCHEM_TOTAL_CHARGE>
0

> <PUBCHEM_HEAVY_ATOM_COUNT>
20

> <PUBCHEM_ATOM_DEF_STEREO_COUNT>
0

> <PUBCHEM_ATOM_UDEF_STEREO_COUNT>
0

> <PUBCHEM_BOND_DEF_STEREO_COUNT>
0

> <PUBCHEM_BOND_UDEF_STEREO_COUNT>
0

> <PUBCHEM_ISOTOPIC_ATOM_COUNT>
0

> <PUBCHEM_COMPONENT_COUNT>
1

> <PUBCHEM_CACTVS_TAUTO_COUNT>
3

> <PUBCHEM_COORDINATE_TYPE>
1
5
255

> <PUBCHEM_BONDANNOTATIONS>
1  13  8
1  8  8
11  14  8
11  15  8
14  17  8
15  18  8
16  17  8
16  18  8
5  13  8
5  7  8
7  8  8

$$$$
3499
  -OEChem-11021605012D

 59 63  0     0  0  0  0  0  0999 V2000
    2.8660    1.5908    0.0000 O   0  0  0  0  0  0  0  0  0  0  0  0
    5.1346    3.1578    0.0000 O   0  0  0  0  0  0  0  0  0  0  0  0
    8.4843    4.2398    0.0000 O   0  0  0  0  0  0  0  0  0  0  0  0
    6.4103   -0.2139    0.0000 N   0  0  0  0  0  0  0  0  0  0  0  0
    6.7238    3.9641    0.0000 N   0  0  0  0  0  0  0  0  0  0  0  0
    5.6960   -3.6036    0.0000 N   0  0  0  0  0  0  0  0  0  0  0  0
    9.4221    0.7589    0.0000 N   0  0  0  0  0  0  0  0  0  0  0  0
    6.4103    1.3956    0.0000 C   0  0  0  0  0  0  0  0  0  0  0  0
    5.4641    0.0908    0.0000 C   0  0  0  0  0  0  0  0  0  0  0  0
    5.4641    1.0908    0.0000 C   0  0  0  0  0  0  0  0  0  0  0  0
    6.7210   -1.1644    0.0000 C   0  0  0  0  0  0  0  0  0  0  0  0
    6.9939    0.5908    0.0000 C   0  0  0  0  0  0  0  0  0  0  0  0
    6.7210    2.3461    0.0000 C   0  0  0  0  0  0  0  0  0  0  0  0
    6.0531   -1.9087    0.0000 C   0  0  0  0  0  0  0  0  0  0  0  0
    7.6726    2.6534    0.0000 C   0  0  0  0  0  0  0  0  0  0  0  0
    6.3638   -2.8593    0.0000 C   0  0  0  0  0  0  0  0  0  0  0  0
    8.4806    2.0642    0.0000 C   0  0  0  0  0  0  0  0  0  0  0  0
    4.5981    1.5908    0.0000 C   0  0  0  0  0  0  0  0  0  0  0  0
    4.5981   -0.4092    0.0000 C   0  0  0  0  0  0  0  0  0  0  0  0
    6.1346    3.1561    0.0000 C   0  0  0  0  0  0  0  0  0  0  0  0
    9.4263    2.3706    0.0000 C   0  0  0  0  0  0  0  0  0  0  0  0
    7.6743    3.6534    0.0000 C   0  0  0  0  0  0  0  0  0  0  0  0
    3.7320    1.0908    0.0000 C   0  0  0  0  0  0  0  0  0  0  0  0
    3.7320    0.0908    0.0000 C   0  0  0  0  0  0  0  0  0  0  0  0
   10.0112    1.5596    0.0000 C   0  0  0  0  0  0  0  0  0  0  0  0
    8.4780    1.0702    0.0000 C   0  0  0  0  0  0  0  0  0  0  0  0
    9.8362    3.2828    0.0000 C   0  0  0  0  0  0  0  0  0  0  0  0
   11.0061    1.6607    0.0000 C   0  0  0  0  0  0  0  0  0  0  0  0
    6.0066   -4.5541    0.0000 C   0  0  0  0  0  0  0  0  0  0  0  0
    4.7175   -3.3973    0.0000 C   0  0  0  0  0  0  0  0  0  0  0  0
   10.8310    3.3838    0.0000 C   0  0  0  0  0  0  0  0  0  0  0  0
   11.4160    2.5728    0.0000 C   0  0  0  0  0  0  0  0  0  0  0  0
    2.0000    1.0908    0.0000 C   0  0  0  0  0  0  0  0  0  0  0  0
    7.1035   -1.6523    0.0000 H   0  0  0  0  0  0  0  0  0  0  0  0
    7.2679   -0.8724    0.0000 H   0  0  0  0  0  0  0  0  0  0  0  0
    7.6139    0.5908    0.0000 H   0  0  0  0  0  0  0  0  0  0  0  0
    5.6706   -1.4208    0.0000 H   0  0  0  0  0  0  0  0  0  0  0  0
    5.5062   -2.2008    0.0000 H   0  0  0  0  0  0  0  0  0  0  0  0
    6.7464   -3.3472    0.0000 H   0  0  0  0  0  0  0  0  0  0  0  0
    6.9107   -2.5672    0.0000 H   0  0  0  0  0  0  0  0  0  0  0  0
    4.5981    2.2108    0.0000 H   0  0  0  0  0  0  0  0  0  0  0  0
    4.5981   -1.0292    0.0000 H   0  0  0  0  0  0  0  0  0  0  0  0
    3.1951   -0.2192    0.0000 H   0  0  0  0  0  0  0  0  0  0  0  0
    6.5332    4.5541    0.0000 H   0  0  0  0  0  0  0  0  0  0  0  0
    7.9751    0.7075    0.0000 H   0  0  0  0  0  0  0  0  0  0  0  0
    9.6106    0.1683    0.0000 H   0  0  0  0  0  0  0  0  0  0  0  0
    9.4735    3.7856    0.0000 H   0  0  0  0  0  0  0  0  0  0  0  0
   11.3688    1.1578    0.0000 H   0  0  0  0  0  0  0  0  0  0  0  0
    5.4173   -4.7467    0.0000 H   0  0  0  0  0  0  0  0  0  0  0  0
    4.8453   -2.7907    0.0000 H   0  0  0  0  0  0  0  0  0  0  0  0
    4.1108   -3.2695    0.0000 H   0  0  0  0  0  0  0  0  0  0  0  0
    4.5896   -4.0040    0.0000 H   0  0  0  0  0  0  0  0  0  0  0  0
    6.1992   -5.1434    0.0000 H   0  0  0  0  0  0  0  0  0  0  0  0
    6.5959   -4.3615    0.0000 H   0  0  0  0  0  0  0  0  0  0  0  0
   11.0852    3.9494    0.0000 H   0  0  0  0  0  0  0  0  0  0  0  0
   12.0328    2.6355    0.0000 H   0  0  0  0  0  0  0  0  0  0  0  0
    1.6900    1.6278    0.0000 H   0  0  0  0  0  0  0  0  0  0  0  0
    1.4631    0.7808    0.0000 H   0  0  0  0  0  0  0  0  0  0  0  0
    2.3100    0.5539    0.0000 H   0  0  0  0  0  0  0  0  0  0  0  0
  1 23  1  0  0  0  0
  1 33  1  0  0  0  0
  2 20  2  0  0  0  0
  3 22  2  0  0  0  0
  4  9  1  0  0  0  0
  4 11  1  0  0  0  0
  4 12  1  0  0  0  0
  5 20  1  0  0  0  0
  5 22  1  0  0  0  0
  5 44  1  0  0  0  0
  6 16  1  0  0  0  0
  6 29  1  0  0  0  0
  6 30  1  0  0  0  0
  7 25  1  0  0  0  0
  7 26  1  0  0  0  0
  7 46  1  0  0  0  0
  8 10  1  0  0  0  0
  8 12  2  0  0  0  0
  8 13  1  0  0  0  0
  9 10  2  0  0  0  0
  9 19  1  0  0  0  0
 10 18  1  0  0  0  0
 11 14  1  0  0  0  0
 11 34  1  0  0  0  0
 11 35  1  0  0  0  0
 12 36  1  0  0  0  0
 13 15  2  0  0  0  0
 13 20  1  0  0  0  0
 14 16  1  0  0  0  0
 14 37  1  0  0  0  0
 14 38  1  0  0  0  0
 15 17  1  0  0  0  0
 15 22  1  0  0  0  0
 16 39  1  0  0  0  0
 16 40  1  0  0  0  0
 17 21  1  0  0  0  0
 17 26  2  0  0  0  0
 18 23  2  0  0  0  0
 18 41  1  0  0  0  0
 19 24  2  0  0  0  0
 19 42  1  0  0  0  0
 21 25  1  0  0  0  0
 21 27  2  0  0  0  0
 23 24  1  0  0  0  0
 24 43  1  0  0  0  0
 25 28  2  0  0  0  0
 26 45  1  0  0  0  0
 27 31  1  0  0  0  0
 27 47  1  0  0  0  0
 28 32  1  0  0  0  0
 28 48  1  0  0  0  0
 29 49  1  0  0  0  0
 29 53  1  0  0  0  0
 29 54  1  0  0  0  0
 30 50  1  0  0  0  0
 30 51  1  0  0  0  0
 30 52  1  0  0  0  0
 31 32  2  0  0  0  0
 31 55  1  0  0  0  0
 32 56  1  0  0  0  0
 33 57  1  0  0  0  0
 33 58  1  0  0  0  0
 33 59  1  0  0  0  0
M  END
> <PUBCHEM_COMPOUND_CID>
3499

> <PUBCHEM_COMPOUND_CANONICALIZED>
1

> <PUBCHEM_CACTVS_COMPLEXITY>
796

> <PUBCHEM_CACTVS_HBOND_ACCEPTOR>
4

> <PUBCHEM_CACTVS_HBOND_DONOR>
2

> <PUBCHEM_CACTVS_ROTATABLE_BOND>
7

> <PUBCHEM_CACTVS_SUBSKEYS>
AAADceB7sAAAAAAAAAAAAAAAAAAAAWLEAAAwYAAAAAAAAFgB/gAAHgAQAAAADAzBngY+xvPNlACoAzV3VACCiCAxIiAI2aE+bNgMJvLE9ZuEMChk1DHI6Qe82fKegEABAAACAAAAgAIAAAQAAAAAAAAAAA==

> <PUBCHEM_IUPAC_OPENEYE_NAME>
3-[1-[3-(dimethylamino)propyl]-5-methoxy-indol-3-yl]-4-(1H-indol-3-yl)pyrrole-2,5-dione

> <PUBCHEM_IUPAC_CAS_NAME>
3-[1-[3-(dimethylamino)propyl]-5-methoxy-3-indolyl]-4-(1H-indol-3-yl)pyrrole-2,5-dione

> <PUBCHEM_IUPAC_NAME>
3-[1-[3-(dimethylamino)propyl]-5-methoxyindol-3-yl]-4-(1H-indol-3-yl)pyrrole-2,5-dione

> <PUBCHEM_IUPAC_SYSTEMATIC_NAME>
3-[1-[3-(dimethylamino)propyl]-5-methoxy-indol-3-yl]-4-(1H-indol-3-yl)pyrrole-2,5-dione

> <PUBCHEM_IUPAC_TRADITIONAL_NAME>
3-[1-[3-(dimethylamino)propyl]-5-methoxy-indol-3-yl]-4-(1H-indol-3-yl)-3-pyrroline-2,5-quinone

> <PUBCHEM_IUPAC_INCHI>
InChI=1S/C26H26N4O3/c1-29(2)11-6-12-30-15-20(18-13-16(33-3)9-10-22(18)30)24-23(25(31)28-26(24)32)19-14-27-21-8-5-4-7-17(19)21/h4-5,7-10,13-15,27H,6,11-12H2,1-3H3,(H,28,31,32)

> <PUBCHEM_IUPAC_INCHIKEY>
LLJJDLHGZUOMQP-UHFFFAOYSA-N

> <PUBCHEM_XLOGP3_AA>
3.1

> <PUBCHEM_EXACT_MASS>
442.2

> <PUBCHEM_MOLECULAR_FORMULA>
C26H26N4O3

> <PUBCHEM_MOLECULAR_WEIGHT>
442.519

> <PUBCHEM_OPENEYE_CAN_SMILES>
CN(C)CCCN1C=C(C2=C1C=CC(=C2)OC)C3=C(C(=O)NC3=O)C4=CNC5=CC=CC=C54

> <PUBCHEM_OPENEYE_ISO_SMILES>
CN(C)CCCN1C=C(C2=C1C=CC(=C2)OC)C3=C(C(=O)NC3=O)C4=CNC5=CC=CC=C54

> <PUBCHEM_CACTVS_TPSA>
79.4

> <PUBCHEM_MONOISOTOPIC_WEIGHT>
442.2

> <PUBCHEM_TOTAL_CHARGE>
0

> <PUBCHEM_HEAVY_ATOM_COUNT>
33

> <PUBCHEM_ATOM_DEF_STEREO_COUNT>
0

> <PUBCHEM_ATOM_UDEF_STEREO_COUNT>
0

> <PUBCHEM_BOND_DEF_STEREO_COUNT>
0

> <PUBCHEM_BOND_UDEF_STEREO_COUNT>
0

> <PUBCHEM_ISOTOPIC_ATOM_COUNT>
0

> <PUBCHEM_COMPONENT_COUNT>
1

> <PUBCHEM_CACTVS_TAUTO_COUNT>
11

> <PUBCHEM_COORDINATE_TYPE>
1
5
255

> <PUBCHEM_BONDANNOTATIONS>
10  18  8
17  21  8
17  26  8
18  23  8
19  24  8
21  25  8
21  27  8
23  24  8
25  28  8
27  31  8
28  32  8
31  32  8
4  12  8
4  9  8
7  25  8
7  26  8
8  10  8
8  12  8
9  10  8
9  19  8

$$$$
9843206
  -OEChem-11021605012D

 50 53  0     0  0  0  0  0  0999 V2000
    9.7872   -1.5273    0.0000 O   0  0  0  0  0  0  0  0  0  0  0  0
    2.8660    1.5472    0.0000 O   0  0  0  0  0  0  0  0  0  0  0  0
    2.8660    3.5472    0.0000 O   0  0  0  0  0  0  0  0  0  0  0  0
    6.3465    0.5126    0.0000 N   0  0  0  0  0  0  0  0  0  0  0  0
    7.2641    2.0264    0.0000 N   0  0  0  0  0  0  0  0  0  0  0  0
    6.3580    3.5818    0.0000 N   0  0  0  0  0  0  0  0  0  0  0  0
    5.4641    2.0472    0.0000 C   0  0  0  0  0  0  0  0  0  0  0  0
    6.3580    1.5125    0.0000 C   0  0  0  0  0  0  0  0  0  0  0  0
    5.4641    3.0472    0.0000 C   0  0  0  0  0  0  0  0  0  0  0  0
    4.5981    1.5472    0.0000 C   0  0  0  0  0  0  0  0  0  0  0  0
    7.2067    0.0026    0.0000 C   0  0  0  0  0  0  0  0  0  0  0  0
    3.7320    2.0472    0.0000 C   0  0  0  0  0  0  0  0  0  0  0  0
    4.5981    3.5472    0.0000 C   0  0  0  0  0  0  0  0  0  0  0  0
    3.7320    3.0472    0.0000 C   0  0  0  0  0  0  0  0  0  0  0  0
    8.9270   -1.0174    0.0000 C   0  0  0  0  0  0  0  0  0  0  0  0
    7.1951   -0.9973    0.0000 C   0  0  0  0  0  0  0  0  0  0  0  0
    8.0784    0.4926    0.0000 C   0  0  0  0  0  0  0  0  0  0  0  0
    8.0553   -1.5073    0.0000 C   0  0  0  0  0  0  0  0  0  0  0  0
    8.9386   -0.0174    0.0000 C   0  0  0  0  0  0  0  0  0  0  0  0
    9.7757   -2.5273    0.0000 C   0  0  0  0  0  0  0  0  0  0  0  0
   10.6358   -3.0373    0.0000 C   0  0  0  0  0  0  0  0  0  0  0  0
    7.2641    3.0680    0.0000 C   0  0  0  0  0  0  0  0  0  0  0  0
   10.6243   -4.0372    0.0000 C   0  0  0  0  0  0  0  0  0  0  0  0
   11.5076   -2.5473    0.0000 C   0  0  0  0  0  0  0  0  0  0  0  0
   11.4845   -4.5472    0.0000 C   0  0  0  0  0  0  0  0  0  0  0  0
   12.3678   -3.0573    0.0000 C   0  0  0  0  0  0  0  0  0  0  0  0
    2.0000    2.0472    0.0000 C   0  0  0  0  0  0  0  0  0  0  0  0
   12.3562   -4.0572    0.0000 C   0  0  0  0  0  0  0  0  0  0  0  0
    2.8660    4.5472    0.0000 C   0  0  0  0  0  0  0  0  0  0  0  0
    4.5981    0.9272    0.0000 H   0  0  0  0  0  0  0  0  0  0  0  0
    5.8060    0.2088    0.0000 H   0  0  0  0  0  0  0  0  0  0  0  0
    4.5981    4.1672    0.0000 H   0  0  0  0  0  0  0  0  0  0  0  0
    6.6546   -1.3011    0.0000 H   0  0  0  0  0  0  0  0  0  0  0  0
    8.0856    1.1125    0.0000 H   0  0  0  0  0  0  0  0  0  0  0  0
    8.0481   -2.1273    0.0000 H   0  0  0  0  0  0  0  0  0  0  0  0
    9.4791    0.2863    0.0000 H   0  0  0  0  0  0  0  0  0  0  0  0
    9.1664   -2.4126    0.0000 H   0  0  0  0  0  0  0  0  0  0  0  0
    9.5569   -3.1074    0.0000 H   0  0  0  0  0  0  0  0  0  0  0  0
    7.7998    3.3801    0.0000 H   0  0  0  0  0  0  0  0  0  0  0  0
   10.0838   -4.3410    0.0000 H   0  0  0  0  0  0  0  0  0  0  0  0
   11.5148   -1.9274    0.0000 H   0  0  0  0  0  0  0  0  0  0  0  0
   11.4773   -5.1671    0.0000 H   0  0  0  0  0  0  0  0  0  0  0  0
   12.9083   -2.7535    0.0000 H   0  0  0  0  0  0  0  0  0  0  0  0
   12.8895   -4.3734    0.0000 H   0  0  0  0  0  0  0  0  0  0  0  0
    2.3100    2.5841    0.0000 H   0  0  0  0  0  0  0  0  0  0  0  0
    1.4631    2.3572    0.0000 H   0  0  0  0  0  0  0  0  0  0  0  0
    1.6900    1.5102    0.0000 H   0  0  0  0  0  0  0  0  0  0  0  0
    3.4860    4.5472    0.0000 H   0  0  0  0  0  0  0  0  0  0  0  0
    2.8660    5.1672    0.0000 H   0  0  0  0  0  0  0  0  0  0  0  0
    2.2460    4.5472    0.0000 H   0  0  0  0  0  0  0  0  0  0  0  0
  1 15  1  0  0  0  0
  1 20  1  0  0  0  0
  2 12  1  0  0  0  0
  2 27  1  0  0  0  0
  3 14  1  0  0  0  0
  3 29  1  0  0  0  0
  4  8  1  0  0  0  0
  4 11  1  0  0  0  0
  4 31  1  0  0  0  0
  5  8  2  0  0  0  0
  5 22  1  0  0  0  0
  6  9  1  0  0  0  0
  6 22  2  0  0  0  0
  7  8  1  0  0  0  0
  7  9  1  0  0  0  0
  7 10  2  0  0  0  0
  9 13  2  0  0  0  0
 10 12  1  0  0  0  0
 10 30  1  0  0  0  0
 11 16  2  0  0  0  0
 11 17  1  0  0  0  0
 12 14  2  0  0  0  0
 13 14  1  0  0  0  0
 13 32  1  0  0  0  0
 15 18  2  0  0  0  0
 15 19  1  0  0  0  0
 16 18  1  0  0  0  0
 16 33  1  0  0  0  0
 17 19  2  0  0  0  0
 17 34  1  0  0  0  0
 18 35  1  0  0  0  0
 19 36  1  0  0  0  0
 20 21  1  0  0  0  0
 20 37  1  0  0  0  0
 20 38  1  0  0  0  0
 21 23  2  0  0  0  0
 21 24  1  0  0  0  0
 22 39  1  0  0  0  0
 23 25  1  0  0  0  0
 23 40  1  0  0  0  0
 24 26  2  0  0  0  0
 24 41  1  0  0  0  0
 25 28  2  0  0  0  0
 25 42  1  0  0  0  0
 26 28  1  0  0  0  0
 26 43  1  0  0  0  0
 27 45  1  0  0  0  0
 27 46  1  0  0  0  0
 27 47  1  0  0  0  0
 28 44  1  0  0  0  0
 29 48  1  0  0  0  0
 29 49  1  0  0  0  0
 29 50  1  0  0  0  0
M  END
> <PUBCHEM_COMPOUND_CID>
9843206

> <PUBCHEM_COMPOUND_CANONICALIZED>
1

> <PUBCHEM_CACTVS_COMPLEXITY>
480

> <PUBCHEM_CACTVS_HBOND_ACCEPTOR>
6

> <PUBCHEM_CACTVS_HBOND_DONOR>
1

> <PUBCHEM_CACTVS_ROTATABLE_BOND>
7

> <PUBCHEM_CACTVS_SUBSKEYS>
AAADceB7MAAAAAAAAAAAAAAAAAAAAAAAAAA8YMEAAAAAAACx9AAAHgAQAAAADAyhngY39vbIFACgAyZjZACCiCkxIqAJ2CA+7JiNLuLE+duGPCru0BvK6Cew0DMOIEABAgACQABAgAIEAASAAAAAAAAAAA==

> <PUBCHEM_IUPAC_OPENEYE_NAME>
N-(4-benzyloxyphenyl)-6,7-dimethoxy-quinazolin-4-amine

> <PUBCHEM_IUPAC_CAS_NAME>
6,7-dimethoxy-N-(4-phenylmethoxyphenyl)-4-quinazolinamine

> <PUBCHEM_IUPAC_NAME>
6,7-dimethoxy-N-(4-phenylmethoxyphenyl)quinazolin-4-amine

> <PUBCHEM_IUPAC_SYSTEMATIC_NAME>
6,7-dimethoxy-N-(4-phenylmethoxyphenyl)quinazolin-4-amine

> <PUBCHEM_IUPAC_TRADITIONAL_NAME>
(4-benzoxyphenyl)-(6,7-dimethoxyquinazolin-4-yl)amine

> <PUBCHEM_IUPAC_INCHI>
InChI=1S/C23H21N3O3/c1-27-21-12-19-20(13-22(21)28-2)24-15-25-23(19)26-17-8-10-18(11-9-17)29-14-16-6-4-3-5-7-16/h3-13,15H,14H2,1-2H3,(H,24,25,26)

> <PUBCHEM_IUPAC_INCHIKEY>
DNOKYISWMVFYFA-UHFFFAOYSA-N

> <PUBCHEM_XLOGP3_AA>
4.8

> <PUBCHEM_EXACT_MASS>
387.158

> <PUBCHEM_MOLECULAR_FORMULA>
C23H21N3O3

> <PUBCHEM_MOLECULAR_WEIGHT>
387.439

> <PUBCHEM_OPENEYE_CAN_SMILES>
COC1=C(C=C2C(=C1)C(=NC=N2)NC3=CC=C(C=C3)OCC4=CC=CC=C4)OC

> <PUBCHEM_OPENEYE_ISO_SMILES>
COC1=C(C=C2C(=C1)C(=NC=N2)NC3=CC=C(C=C3)OCC4=CC=CC=C4)OC

> <PUBCHEM_CACTVS_TPSA>
65.5

> <PUBCHEM_MONOISOTOPIC_WEIGHT>
387.158

> <PUBCHEM_TOTAL_CHARGE>
0

> <PUBCHEM_HEAVY_ATOM_COUNT>
29

> <PUBCHEM_ATOM_DEF_STEREO_COUNT>
0

> <PUBCHEM_ATOM_UDEF_STEREO_COUNT>
0

> <PUBCHEM_BOND_DEF_STEREO_COUNT>
0

> <PUBCHEM_BOND_UDEF_STEREO_COUNT>
0

> <PUBCHEM_ISOTOPIC_ATOM_COUNT>
0

> <PUBCHEM_COMPONENT_COUNT>
1

> <PUBCHEM_CACTVS_TAUTO_COUNT>
3

> <PUBCHEM_COORDINATE_TYPE>
1
5
255

> <PUBCHEM_BONDANNOTATIONS>
10  12  8
11  16  8
11  17  8
12  14  8
13  14  8
15  18  8
15  19  8
16  18  8
17  19  8
21  23  8
21  24  8
23  25  8
24  26  8
25  28  8
26  28  8
5  22  8
5  8  8
6  22  8
6  9  8
7  10  8
7  8  8
7  9  8
9  13  8

$$$$
11601743
  -OEChem-11021605012D

 34 37  0     0  0  0  0  0  0999 V2000
    8.1648    2.7944    0.0000 O   0  0  0  0  0  0  0  0  0  0  0  0
    2.5369    0.9284    0.0000 O   0  0  0  0  0  0  0  0  0  0  0  0
    9.3628   -3.0125    0.0000 O   0  0  0  0  0  0  0  0  0  0  0  0
    6.0812    2.7332    0.0000 N   0  0  0  0  0  0  0  0  0  0  0  0
    9.1536    0.9593    0.0000 N   0  0  0  0  0  0  0  0  0  0  0  0
    6.6648    1.9284    0.0000 C   0  0  0  0  0  0  0  0  0  0  0  0
    8.1648    1.0624    0.0000 C   0  0  0  0  0  0  0  0  0  0  0  0
    5.1350    1.4284    0.0000 C   0  0  0  0  0  0  0  0  0  0  0  0
    8.4967   -0.5125    0.0000 C   0  0  0  0  0  0  0  0  0  0  0  0
    5.1350    2.4284    0.0000 C   0  0  0  0  0  0  0  0  0  0  0  0
    9.3628   -0.0125    0.0000 C   0  0  0  0  0  0  0  0  0  0  0  0
    7.6648    1.9284    0.0000 C   0  0  0  0  0  0  0  0  0  0  0  0
    6.0812    1.1237    0.0000 C   0  0  0  0  0  0  0  0  0  0  0  0
    7.7597    0.1546    0.0000 C   0  0  0  0  0  0  0  0  0  0  0  0
    4.2690    0.9284    0.0000 C   0  0  0  0  0  0  0  0  0  0  0  0
    8.4967   -1.5125    0.0000 C   0  0  0  0  0  0  0  0  0  0  0  0
    4.2690    2.9284    0.0000 C   0  0  0  0  0  0  0  0  0  0  0  0
   10.2288   -0.5125    0.0000 C   0  0  0  0  0  0  0  0  0  0  0  0
    9.3628   -2.0125    0.0000 C   0  0  0  0  0  0  0  0  0  0  0  0
    3.4030    1.4284    0.0000 C   0  0  0  0  0  0  0  0  0  0  0  0
    3.4030    2.4284    0.0000 C   0  0  0  0  0  0  0  0  0  0  0  0
   10.2288   -1.5125    0.0000 C   0  0  0  0  0  0  0  0  0  0  0  0
    6.2738    0.5344    0.0000 H   0  0  0  0  0  0  0  0  0  0  0  0
    7.1530    0.0268    0.0000 H   0  0  0  0  0  0  0  0  0  0  0  0
    9.5676    1.4208    0.0000 H   0  0  0  0  0  0  0  0  0  0  0  0
    6.2738    3.3225    0.0000 H   0  0  0  0  0  0  0  0  0  0  0  0
    4.2690    0.3084    0.0000 H   0  0  0  0  0  0  0  0  0  0  0  0
    7.9598   -1.8225    0.0000 H   0  0  0  0  0  0  0  0  0  0  0  0
    4.2690    3.5484    0.0000 H   0  0  0  0  0  0  0  0  0  0  0  0
   10.7657   -0.2025    0.0000 H   0  0  0  0  0  0  0  0  0  0  0  0
    2.8660    2.7384    0.0000 H   0  0  0  0  0  0  0  0  0  0  0  0
   10.7657   -1.8225    0.0000 H   0  0  0  0  0  0  0  0  0  0  0  0
    2.0000    1.2384    0.0000 H   0  0  0  0  0  0  0  0  0  0  0  0
    9.8997   -3.3225    0.0000 H   0  0  0  0  0  0  0  0  0  0  0  0
  1 12  2  0  0  0  0
  2 20  1  0  0  0  0
  2 33  1  0  0  0  0
  3 19  1  0  0  0  0
  3 34  1  0  0  0  0
  4  6  1  0  0  0  0
  4 10  1  0  0  0  0
  4 26  1  0  0  0  0
  5  7  1  0  0  0  0
  5 11  1  0  0  0  0
  5 25  1  0  0  0  0
  6 12  1  0  0  0  0
  6 13  2  0  0  0  0
  7 12  1  0  0  0  0
  7 14  2  0  0  0  0
  8 10  2  0  0  0  0
  8 13  1  0  0  0  0
  8 15  1  0  0  0  0
  9 11  2  0  0  0  0
  9 14  1  0  0  0  0
  9 16  1  0  0  0  0
 10 17  1  0  0  0  0
 11 18  1  0  0  0  0
 13 23  1  0  0  0  0
 14 24  1  0  0  0  0
 15 20  2  0  0  0  0
 15 27  1  0  0  0  0
 16 19  2  0  0  0  0
 16 28  1  0  0  0  0
 17 21  2  0  0  0  0
 17 29  1  0  0  0  0
 18 22  2  0  0  0  0
 18 30  1  0  0  0  0
 19 22  1  0  0  0  0
 20 21  1  0  0  0  0
 21 31  1  0  0  0  0
 22 32  1  0  0  0  0
M  END
> <PUBCHEM_COMPOUND_CID>
11601743

> <PUBCHEM_COMPOUND_CANONICALIZED>
1

> <PUBCHEM_CACTVS_COMPLEXITY>
406

> <PUBCHEM_CACTVS_HBOND_ACCEPTOR>
3

> <PUBCHEM_CACTVS_HBOND_DONOR>
4

> <PUBCHEM_CACTVS_ROTATABLE_BOND>
2

> <PUBCHEM_CACTVS_SUBSKEYS>
AAADccB7MAAAAAAAAAAAAAAAAAAAAWLAAAAwYAAAAAAAAFgB/gAAHgAQCAAADAyBngAwxvLJkgCoA6RyRACCgCAnIiAImSG2bNgIJvLC1bOEcQhk0BHI2Ye42fOeAEABAAACAAAAgAIAAAQAAAAAAAAAAA==

> <PUBCHEM_IUPAC_OPENEYE_NAME>
bis(5-hydroxy-1H-indol-2-yl)methanone

> <PUBCHEM_IUPAC_CAS_NAME>
bis(5-hydroxy-1H-indol-2-yl)methanone

> <PUBCHEM_IUPAC_NAME>
bis(5-hydroxy-1H-indol-2-yl)methanone

> <PUBCHEM_IUPAC_SYSTEMATIC_NAME>
bis(5-oxidanyl-1H-indol-2-yl)methanone

> <PUBCHEM_IUPAC_TRADITIONAL_NAME>
bis(5-hydroxy-1H-indol-2-yl)methanone

> <PUBCHEM_IUPAC_INCHI>
InChI=1S/C17H12N2O3/c20-11-1-3-13-9(5-11)7-15(18-13)17(22)16-8-10-6-12(21)2-4-14(10)19-16/h1-8,18-21H

> <PUBCHEM_IUPAC_INCHIKEY>
NIMIWWQLOGNYHD-UHFFFAOYSA-N

> <PUBCHEM_XLOGP3_AA>
3.5

> <PUBCHEM_EXACT_MASS>
292.085

> <PUBCHEM_MOLECULAR_FORMULA>
C17H12N2O3

> <PUBCHEM_MOLECULAR_WEIGHT>
292.294

> <PUBCHEM_OPENEYE_CAN_SMILES>
C1=CC2=C(C=C1O)C=C(N2)C(=O)C3=CC4=C(N3)C=CC(=C4)O

> <PUBCHEM_OPENEYE_ISO_SMILES>
C1=CC2=C(C=C1O)C=C(N2)C(=O)C3=CC4=C(N3)C=CC(=C4)O

> <PUBCHEM_CACTVS_TPSA>
89.1

> <PUBCHEM_MONOISOTOPIC_WEIGHT>
292.085

> <PUBCHEM_TOTAL_CHARGE>
0

> <PUBCHEM_HEAVY_ATOM_COUNT>
22

> <PUBCHEM_ATOM_DEF_STEREO_COUNT>
0

> <PUBCHEM_ATOM_UDEF_STEREO_COUNT>
0

> <PUBCHEM_BOND_DEF_STEREO_COUNT>
0

> <PUBCHEM_BOND_UDEF_STEREO_COUNT>
0

> <PUBCHEM_ISOTOPIC_ATOM_COUNT>
0

> <PUBCHEM_COMPONENT_COUNT>
1

> <PUBCHEM_CACTVS_TAUTO_COUNT>
190

> <PUBCHEM_COORDINATE_TYPE>
1
5
255

> <PUBCHEM_BONDANNOTATIONS>
10  17  8
11  18  8
15  20  8
16  19  8
17  21  8
18  22  8
19  22  8
20  21  8
4  10  8
4  6  8
5  11  8
5  7  8
6  13  8
7  14  8
8  10  8
8  13  8
8  15  8
9  11  8
9  14  8
9  16  8

$$$$
5330790
  -OEChem-11021605012D

 39 41  0     0  0  0  0  0  0999 V2000
    5.8076    3.9188    0.0000 S   0  0  0  0  0  0  0  0  0  0  0  0
    2.6387   -4.5243    0.0000 F   0  0  0  0  0  0  0  0  0  0  0  0
    5.4413   -2.4881    0.0000 F   0  0  0  0  0  0  0  0  0  0  0  0
    6.8076    3.9188    0.0000 O   0  0  0  0  0  0  0  0  0  0  0  0
    4.8076    3.9188    0.0000 O   0  0  0  0  0  0  0  0  0  0  0  0
    2.4577   -2.8017    0.0000 O   0  0  0  0  0  0  0  0  0  0  0  0
    5.8076   -0.0812    0.0000 N   0  0  0  0  0  0  0  0  0  0  0  0
    3.8590   -1.7836    0.0000 N   0  0  0  0  0  0  0  0  0  0  0  0
    4.8371   -1.5757    0.0000 N   0  0  0  0  0  0  0  0  0  0  0  0
    4.0281   -0.1745    0.0000 N   0  0  0  0  0  0  0  0  0  0  0  0
    5.8076    4.9188    0.0000 N   0  0  0  0  0  0  0  0  0  0  0  0
    2.3644   -0.8131    0.0000 N   0  0  0  0  0  0  0  0  0  0  0  0
    5.8076    0.9188    0.0000 C   0  0  0  0  0  0  0  0  0  0  0  0
    5.8076    2.9188    0.0000 C   0  0  0  0  0  0  0  0  0  0  0  0
    4.9416    1.4188    0.0000 C   0  0  0  0  0  0  0  0  0  0  0  0
    6.6737    1.4188    0.0000 C   0  0  0  0  0  0  0  0  0  0  0  0
    4.9416    2.4188    0.0000 C   0  0  0  0  0  0  0  0  0  0  0  0
    6.6737    2.4188    0.0000 C   0  0  0  0  0  0  0  0  0  0  0  0
    4.9416   -0.5812    0.0000 C   0  0  0  0  0  0  0  0  0  0  0  0
    4.0400   -3.5062    0.0000 C   0  0  0  0  0  0  0  0  0  0  0  0
    3.4522   -2.6972    0.0000 C   0  0  0  0  0  0  0  0  0  0  0  0
    3.3590   -0.9176    0.0000 C   0  0  0  0  0  0  0  0  0  0  0  0
    3.6333   -4.4198    0.0000 C   0  0  0  0  0  0  0  0  0  0  0  0
    5.0345   -3.4017    0.0000 C   0  0  0  0  0  0  0  0  0  0  0  0
    4.2210   -5.2288    0.0000 C   0  0  0  0  0  0  0  0  0  0  0  0
    5.6223   -4.2107    0.0000 C   0  0  0  0  0  0  0  0  0  0  0  0
    5.2156   -5.1242    0.0000 C   0  0  0  0  0  0  0  0  0  0  0  0
    4.4047    1.1088    0.0000 H   0  0  0  0  0  0  0  0  0  0  0  0
    7.2106    1.1088    0.0000 H   0  0  0  0  0  0  0  0  0  0  0  0
    6.3446   -0.3912    0.0000 H   0  0  0  0  0  0  0  0  0  0  0  0
    4.4047    2.7288    0.0000 H   0  0  0  0  0  0  0  0  0  0  0  0
    7.2106    2.7288    0.0000 H   0  0  0  0  0  0  0  0  0  0  0  0
    3.9689   -5.7952    0.0000 H   0  0  0  0  0  0  0  0  0  0  0  0
    6.2389   -4.1459    0.0000 H   0  0  0  0  0  0  0  0  0  0  0  0
    6.3446    5.2288    0.0000 H   0  0  0  0  0  0  0  0  0  0  0  0
    5.2707    5.2288    0.0000 H   0  0  0  0  0  0  0  0  0  0  0  0
    5.5800   -5.6258    0.0000 H   0  0  0  0  0  0  0  0  0  0  0  0
    2.1122   -0.2467    0.0000 H   0  0  0  0  0  0  0  0  0  0  0  0
    2.0000   -1.3147    0.0000 H   0  0  0  0  0  0  0  0  0  0  0  0
  1  4  2  0  0  0  0
  1  5  2  0  0  0  0
  1 11  1  0  0  0  0
  1 14  1  0  0  0  0
  2 23  1  0  0  0  0
  3 24  1  0  0  0  0
  6 21  2  0  0  0  0
  7 13  1  0  0  0  0
  7 19  1  0  0  0  0
  7 30  1  0  0  0  0
  8  9  1  0  0  0  0
  8 21  1  0  0  0  0
  8 22  1  0  0  0  0
  9 19  2  0  0  0  0
 10 19  1  0  0  0  0
 10 22  2  0  0  0  0
 11 35  1  0  0  0  0
 11 36  1  0  0  0  0
 12 22  1  0  0  0  0
 12 38  1  0  0  0  0
 12 39  1  0  0  0  0
 13 15  2  0  0  0  0
 13 16  1  0  0  0  0
 14 17  2  0  0  0  0
 14 18  1  0  0  0  0
 15 17  1  0  0  0  0
 15 28  1  0  0  0  0
 16 18  2  0  0  0  0
 16 29  1  0  0  0  0
 17 31  1  0  0  0  0
 18 32  1  0  0  0  0
 20 21  1  0  0  0  0
 20 23  2  0  0  0  0
 20 24  1  0  0  0  0
 23 25  1  0  0  0  0
 24 26  2  0  0  0  0
 25 27  2  0  0  0  0
 25 33  1  0  0  0  0
 26 27  1  0  0  0  0
 26 34  1  0  0  0  0
 27 37  1  0  0  0  0
M  END
> <PUBCHEM_COMPOUND_CID>
5330790

> <PUBCHEM_COMPOUND_CANONICALIZED>
1

> <PUBCHEM_CACTVS_COMPLEXITY>
630

> <PUBCHEM_CACTVS_HBOND_ACCEPTOR>
10

> <PUBCHEM_CACTVS_HBOND_DONOR>
3

> <PUBCHEM_CACTVS_ROTATABLE_BOND>
4

> <PUBCHEM_CACTVS_SUBSKEYS>
AAADccBzsYBAAAAAAAAAAAAAAAAAAWAAAAAwYAAAAAAAAAAB0AAAHwQYQAAADAiB2Agx0YbIEAKqAiVSdHDSABslAoAfiBkAZMiIKDLAnZGEIQh4kQJIyScYiACOAAQAAAAAAAAACAAAAAAAAAAAAAAAAA==

> <PUBCHEM_IUPAC_OPENEYE_NAME>
4-[[5-amino-1-(2,6-difluorobenzoyl)-1,2,4-triazol-3-yl]amino]benzenesulfonamide

> <PUBCHEM_IUPAC_CAS_NAME>
4-[[5-amino-1-[(2,6-difluorophenyl)-oxomethyl]-1,2,4-triazol-3-yl]amino]benzenesulfonamide

> <PUBCHEM_IUPAC_NAME>
4-[[5-amino-1-(2,6-difluorobenzoyl)-1,2,4-triazol-3-yl]amino]benzenesulfonamide

> <PUBCHEM_IUPAC_SYSTEMATIC_NAME>
4-[[5-azanyl-1-[2,6-bis(fluoranyl)phenyl]carbonyl-1,2,4-triazol-3-yl]amino]benzenesulfonamide

> <PUBCHEM_IUPAC_TRADITIONAL_NAME>
4-[[5-amino-1-(2,6-difluorobenzoyl)-1,2,4-triazol-3-yl]amino]benzenesulfonamide

> <PUBCHEM_IUPAC_INCHI>
InChI=1S/C15H12F2N6O3S/c16-10-2-1-3-11(17)12(10)13(24)23-14(18)21-15(22-23)20-8-4-6-9(7-5-8)27(19,25)26/h1-7H,(H2,19,25,26)(H3,18,20,21,22)

> <PUBCHEM_IUPAC_INCHIKEY>
KDKUVYLMPJIGKA-UHFFFAOYSA-N

> <PUBCHEM_XLOGP3_AA>
2.4

> <PUBCHEM_EXACT_MASS>
394.066

> <PUBCHEM_MOLECULAR_FORMULA>
C15H12F2N6O3S

> <PUBCHEM_MOLECULAR_WEIGHT>
394.357

> <PUBCHEM_OPENEYE_CAN_SMILES>
C1=CC(=C(C(=C1)F)C(=O)N2C(=NC(=N2)NC3=CC=C(C=C3)S(=O)(=O)N)N)F

> <PUBCHEM_OPENEYE_ISO_SMILES>
C1=CC(=C(C(=C1)F)C(=O)N2C(=NC(=N2)NC3=CC=C(C=C3)S(=O)(=O)N)N)F

> <PUBCHEM_CACTVS_TPSA>
154

> <PUBCHEM_MONOISOTOPIC_WEIGHT>
394.066

> <PUBCHEM_TOTAL_CHARGE>
0

> <PUBCHEM_HEAVY_ATOM_COUNT>
27

> <PUBCHEM_ATOM_DEF_STEREO_COUNT>
0

> <PUBCHEM_ATOM_UDEF_STEREO_COUNT>
0

> <PUBCHEM_BOND_DEF_STEREO_COUNT>
0

> <PUBCHEM_BOND_UDEF_STEREO_COUNT>
0

> <PUBCHEM_ISOTOPIC_ATOM_COUNT>
0

> <PUBCHEM_COMPONENT_COUNT>
1

> <PUBCHEM_CACTVS_TAUTO_COUNT>
5

> <PUBCHEM_COORDINATE_TYPE>
1
5
255

> <PUBCHEM_BONDANNOTATIONS>
10  19  8
10  22  8
13  15  8
13  16  8
14  17  8
14  18  8
15  17  8
16  18  8
20  23  8
20  24  8
23  25  8
24  26  8
25  27  8
26  27  8
8  22  8
8  9  8
9  19  8

$$$$
9797370
  -OEChem-11021605012D

 40 43  0     0  0  0  0  0  0999 V2000
    9.4381   -3.3990    0.0000 F   0  0  0  0  0  0  0  0  0  0  0  0
    2.9383    2.4492    0.0000 O   0  0  0  0  0  0  0  0  0  0  0  0
    2.3053    0.5011    0.0000 O   0  0  0  0  0  0  0  0  0  0  0  0
    6.1197   -1.3560    0.0000 N   0  0  0  0  0  0  0  0  0  0  0  0
    7.1138   -1.3552    0.0000 N   0  0  0  0  0  0  0  0  0  0  0  0
    8.3734   -0.1026    0.0000 N   0  0  0  0  0  0  0  0  0  0  0  0
    6.3101    1.1274    0.0000 C   0  0  0  0  0  0  0  0  0  0  0  0
    6.6191    0.1764    0.0000 C   0  0  0  0  0  0  0  0  0  0  0  0
    5.3101    1.1274    0.0000 C   0  0  0  0  0  0  0  0  0  0  0  0
    5.8101   -0.4114    0.0000 C   0  0  0  0  0  0  0  0  0  0  0  0
    5.0010    0.1764    0.0000 C   0  0  0  0  0  0  0  0  0  0  0  0
    7.4218   -0.4100    0.0000 C   0  0  0  0  0  0  0  0  0  0  0  0
    4.6251    1.9122    0.0000 C   0  0  0  0  0  0  0  0  0  0  0  0
    3.9856   -0.0559    0.0000 C   0  0  0  0  0  0  0  0  0  0  0  0
    3.6046    1.7035    0.0000 C   0  0  0  0  0  0  0  0  0  0  0  0
    3.2827    0.7128    0.0000 C   0  0  0  0  0  0  0  0  0  0  0  0
    9.1154   -0.7731    0.0000 C   0  0  0  0  0  0  0  0  0  0  0  0
    8.9057   -1.7508    0.0000 C   0  0  0  0  0  0  0  0  0  0  0  0
   10.0669   -0.4657    0.0000 C   0  0  0  0  0  0  0  0  0  0  0  0
    3.2510    3.3990    0.0000 C   0  0  0  0  0  0  0  0  0  0  0  0
    2.0000   -0.4511    0.0000 C   0  0  0  0  0  0  0  0  0  0  0  0
    9.6477   -2.4213    0.0000 C   0  0  0  0  0  0  0  0  0  0  0  0
   10.8089   -1.1361    0.0000 C   0  0  0  0  0  0  0  0  0  0  0  0
   10.5993   -2.1139    0.0000 C   0  0  0  0  0  0  0  0  0  0  0  0
    6.9165    1.2563    0.0000 H   0  0  0  0  0  0  0  0  0  0  0  0
    6.2452    1.7440    0.0000 H   0  0  0  0  0  0  0  0  0  0  0  0
    4.8235    2.4996    0.0000 H   0  0  0  0  0  0  0  0  0  0  0  0
    3.8009   -0.6477    0.0000 H   0  0  0  0  0  0  0  0  0  0  0  0
    5.7561   -1.8582    0.0000 H   0  0  0  0  0  0  0  0  0  0  0  0
    8.5033    0.5036    0.0000 H   0  0  0  0  0  0  0  0  0  0  0  0
    8.3158   -1.9414    0.0000 H   0  0  0  0  0  0  0  0  0  0  0  0
   10.1969    0.1405    0.0000 H   0  0  0  0  0  0  0  0  0  0  0  0
    3.8399    3.2052    0.0000 H   0  0  0  0  0  0  0  0  0  0  0  0
    3.4448    3.9880    0.0000 H   0  0  0  0  0  0  0  0  0  0  0  0
    2.6621    3.5929    0.0000 H   0  0  0  0  0  0  0  0  0  0  0  0
    1.4096   -0.2618    0.0000 H   0  0  0  0  0  0  0  0  0  0  0  0
    1.8107   -1.0415    0.0000 H   0  0  0  0  0  0  0  0  0  0  0  0
    2.5904   -0.6404    0.0000 H   0  0  0  0  0  0  0  0  0  0  0  0
   11.3989   -0.9455    0.0000 H   0  0  0  0  0  0  0  0  0  0  0  0
   11.0594   -2.5295    0.0000 H   0  0  0  0  0  0  0  0  0  0  0  0
  1 22  1  0  0  0  0
  2 15  1  0  0  0  0
  2 20  1  0  0  0  0
  3 16  1  0  0  0  0
  3 21  1  0  0  0  0
  4  5  1  0  0  0  0
  4 10  1  0  0  0  0
  4 29  1  0  0  0  0
  5 12  2  0  0  0  0
  6 12  1  0  0  0  0
  6 17  1  0  0  0  0
  6 30  1  0  0  0  0
  7  8  1  0  0  0  0
  7  9  1  0  0  0  0
  7 25  1  0  0  0  0
  7 26  1  0  0  0  0
  8 10  2  0  0  0  0
  8 12  1  0  0  0  0
  9 11  1  0  0  0  0
  9 13  2  0  0  0  0
 10 11  1  0  0  0  0
 11 14  2  0  0  0  0
 13 15  1  0  0  0  0
 13 27  1  0  0  0  0
 14 16  1  0  0  0  0
 14 28  1  0  0  0  0
 15 16  2  0  0  0  0
 17 18  2  0  0  0  0
 17 19  1  0  0  0  0
 18 22  1  0  0  0  0
 18 31  1  0  0  0  0
 19 23  2  0  0  0  0
 19 32  1  0  0  0  0
 20 33  1  0  0  0  0
 20 34  1  0  0  0  0
 20 35  1  0  0  0  0
 21 36  1  0  0  0  0
 21 37  1  0  0  0  0
 21 38  1  0  0  0  0
 22 24  2  0  0  0  0
 23 24  1  0  0  0  0
 23 39  1  0  0  0  0
 24 40  1  0  0  0  0
M  END
> <PUBCHEM_COMPOUND_CID>
9797370

> <PUBCHEM_COMPOUND_CANONICALIZED>
1

> <PUBCHEM_CACTVS_COMPLEXITY>
441

> <PUBCHEM_CACTVS_HBOND_ACCEPTOR>
5

> <PUBCHEM_CACTVS_HBOND_DONOR>
2

> <PUBCHEM_CACTVS_ROTATABLE_BOND>
4

> <PUBCHEM_CACTVS_SUBSKEYS>
AAADceB7MQAAAAAAAAAAAAAAAAAAAeIAAAAwYAAAAAAWAGAB0AAAHwAYAAAADAyBngoz9pLjBACiAyZiYACSDAIhIgAduSAm7JiNJuLE+duEtCp02BPK6Cew0PEOoAABAAAQQABAAAIAACCAASAACQAAAA==

> <PUBCHEM_IUPAC_OPENEYE_NAME>
N-(3-fluorophenyl)-6,7-dimethoxy-1,4-dihydroindeno[1,2-c]pyrazol-3-amine

> <PUBCHEM_IUPAC_CAS_NAME>
N-(3-fluorophenyl)-6,7-dimethoxy-1,4-dihydroindeno[1,2-c]pyrazol-3-amine

> <PUBCHEM_IUPAC_NAME>
N-(3-fluorophenyl)-6,7-dimethoxy-1,4-dihydroindeno[1,2-c]pyrazol-3-amine

> <PUBCHEM_IUPAC_SYSTEMATIC_NAME>
N-(3-fluorophenyl)-6,7-dimethoxy-1,4-dihydroindeno[1,2-c]pyrazol-3-amine

> <PUBCHEM_IUPAC_TRADITIONAL_NAME>
(6,7-dimethoxy-1,4-dihydroindeno[1,2-c]pyrazol-3-yl)-(3-fluorophenyl)amine

> <PUBCHEM_IUPAC_INCHI>
InChI=1S/C18H16FN3O2/c1-23-15-7-10-6-14-17(13(10)9-16(15)24-2)21-22-18(14)20-12-5-3-4-11(19)8-12/h3-5,7-9H,6H2,1-2H3,(H2,20,21,22)

> <PUBCHEM_IUPAC_INCHIKEY>
ZDNURMVOKAERHZ-UHFFFAOYSA-N

> <PUBCHEM_XLOGP3_AA>
3.8

> <PUBCHEM_EXACT_MASS>
325.123

> <PUBCHEM_MOLECULAR_FORMULA>
C18H16FN3O2

> <PUBCHEM_MOLECULAR_WEIGHT>
325.343

> <PUBCHEM_OPENEYE_CAN_SMILES>
COC1=C(C=C2C(=C1)CC3=C2NN=C3NC4=CC(=CC=C4)F)OC

> <PUBCHEM_OPENEYE_ISO_SMILES>
COC1=C(C=C2C(=C1)CC3=C2NN=C3NC4=CC(=CC=C4)F)OC

> <PUBCHEM_CACTVS_TPSA>
59.2

> <PUBCHEM_MONOISOTOPIC_WEIGHT>
325.123

> <PUBCHEM_TOTAL_CHARGE>
0

> <PUBCHEM_HEAVY_ATOM_COUNT>
24

> <PUBCHEM_ATOM_DEF_STEREO_COUNT>
0

> <PUBCHEM_ATOM_UDEF_STEREO_COUNT>
0

> <PUBCHEM_BOND_DEF_STEREO_COUNT>
0

> <PUBCHEM_BOND_UDEF_STEREO_COUNT>
0

> <PUBCHEM_ISOTOPIC_ATOM_COUNT>
0

> <PUBCHEM_COMPONENT_COUNT>
1

> <PUBCHEM_CACTVS_TAUTO_COUNT>
5

> <PUBCHEM_COORDINATE_TYPE>
1
5
255

> <PUBCHEM_BONDANNOTATIONS>
11  14  8
13  15  8
14  16  8
15  16  8
17  18  8
17  19  8
18  22  8
19  23  8
22  24  8
23  24  8
4  10  8
4  5  8
5  12  8
8  10  8
8  12  8
9  11  8
9  13  8

$$$$
6603792
  -OEChem-11021605012D

 50 54  0     0  0  0  0  0  0999 V2000
    5.9209    3.3086    0.0000 O   0  0  0  0  0  0  0  0  0  0  0  0
    4.6783   -2.1030    0.0000 N   0  0  0  0  0  0  0  0  0  0  0  0
    2.8660   -2.2982    0.0000 N   0  0  0  0  0  0  0  0  0  0  0  0
    2.0000   -0.7982    0.0000 N   0  0  0  0  0  0  0  0  0  0  0  0
    2.8660    0.7018    0.0000 N   0  0  0  0  0  0  0  0  0  0  0  0
    4.9889   -3.0535    0.0000 C   0  0  0  0  0  0  0  0  0  0  0  0
    4.4026   -3.8635    0.0000 C   0  0  0  0  0  0  0  0  0  0  0  0
    5.9405   -3.3609    0.0000 C   0  0  0  0  0  0  0  0  0  0  0  0
    4.9917   -4.6715    0.0000 C   0  0  0  0  0  0  0  0  0  0  0  0
    5.9422   -4.3609    0.0000 C   0  0  0  0  0  0  0  0  0  0  0  0
    3.7320   -1.7982    0.0000 C   0  0  0  0  0  0  0  0  0  0  0  0
    5.2619   -1.2982    0.0000 C   0  0  0  0  0  0  0  0  0  0  0  0
    3.7320   -0.7982    0.0000 C   0  0  0  0  0  0  0  0  0  0  0  0
    4.6783   -0.4935    0.0000 C   0  0  0  0  0  0  0  0  0  0  0  0
    4.9889    0.4570    0.0000 C   0  0  0  0  0  0  0  0  0  0  0  0
    2.8660   -0.2982    0.0000 C   0  0  0  0  0  0  0  0  0  0  0  0
    2.0000   -1.7982    0.0000 C   0  0  0  0  0  0  0  0  0  0  0  0
    4.3211    1.2013    0.0000 C   0  0  0  0  0  0  0  0  0  0  0  0
    5.9674    0.6632    0.0000 C   0  0  0  0  0  0  0  0  0  0  0  0
    4.6318    2.1518    0.0000 C   0  0  0  0  0  0  0  0  0  0  0  0
    6.2781    1.6138    0.0000 C   0  0  0  0  0  0  0  0  0  0  0  0
    5.6103    2.3580    0.0000 C   0  0  0  0  0  0  0  0  0  0  0  0
    6.8994    3.5148    0.0000 C   0  0  0  0  0  0  0  0  0  0  0  0
    7.5673    2.7705    0.0000 C   0  0  0  0  0  0  0  0  0  0  0  0
    7.2101    4.4653    0.0000 C   0  0  0  0  0  0  0  0  0  0  0  0
    8.5458    2.9767    0.0000 C   0  0  0  0  0  0  0  0  0  0  0  0
    8.1886    4.6715    0.0000 C   0  0  0  0  0  0  0  0  0  0  0  0
    8.8564    3.9272    0.0000 C   0  0  0  0  0  0  0  0  0  0  0  0
    5.4266   -2.6143    0.0000 H   0  0  0  0  0  0  0  0  0  0  0  0
    3.9411   -3.4495    0.0000 H   0  0  0  0  0  0  0  0  0  0  0  0
    3.9425   -4.2792    0.0000 H   0  0  0  0  0  0  0  0  0  0  0  0
    6.5572   -3.4246    0.0000 H   0  0  0  0  0  0  0  0  0  0  0  0
    6.0684   -2.7542    0.0000 H   0  0  0  0  0  0  0  0  0  0  0  0
    4.4553   -4.9825    0.0000 H   0  0  0  0  0  0  0  0  0  0  0  0
    5.2449   -5.2375    0.0000 H   0  0  0  0  0  0  0  0  0  0  0  0
    6.0722   -4.9671    0.0000 H   0  0  0  0  0  0  0  0  0  0  0  0
    6.5587   -4.2950    0.0000 H   0  0  0  0  0  0  0  0  0  0  0  0
    5.8819   -1.2982    0.0000 H   0  0  0  0  0  0  0  0  0  0  0  0
    1.4631   -2.1082    0.0000 H   0  0  0  0  0  0  0  0  0  0  0  0
    3.7144    1.0734    0.0000 H   0  0  0  0  0  0  0  0  0  0  0  0
    6.3815    0.2018    0.0000 H   0  0  0  0  0  0  0  0  0  0  0  0
    2.3291    1.0118    0.0000 H   0  0  0  0  0  0  0  0  0  0  0  0
    3.4030    1.0118    0.0000 H   0  0  0  0  0  0  0  0  0  0  0  0
    4.2177    2.6133    0.0000 H   0  0  0  0  0  0  0  0  0  0  0  0
    6.8848    1.7416    0.0000 H   0  0  0  0  0  0  0  0  0  0  0  0
    7.3747    2.1812    0.0000 H   0  0  0  0  0  0  0  0  0  0  0  0
    6.7960    4.9268    0.0000 H   0  0  0  0  0  0  0  0  0  0  0  0
    8.9598    2.5152    0.0000 H   0  0  0  0  0  0  0  0  0  0  0  0
    8.3812    5.2608    0.0000 H   0  0  0  0  0  0  0  0  0  0  0  0
    9.4631    4.0551    0.0000 H   0  0  0  0  0  0  0  0  0  0  0  0
  1 22  1  0  0  0  0
  1 23  1  0  0  0  0
  2  6  1  0  0  0  0
  2 11  1  0  0  0  0
  2 12  1  0  0  0  0
  3 11  2  0  0  0  0
  3 17  1  0  0  0  0
  4 16  1  0  0  0  0
  4 17  2  0  0  0  0
  5 16  1  0  0  0  0
  5 42  1  0  0  0  0
  5 43  1  0  0  0  0
  6  7  1  0  0  0  0
  6  8  1  0  0  0  0
  6 29  1  0  0  0  0
  7  9  1  0  0  0  0
  7 30  1  0  0  0  0
  7 31  1  0  0  0  0
  8 10  1  0  0  0  0
  8 32  1  0  0  0  0
  8 33  1  0  0  0  0
  9 10  1  0  0  0  0
  9 34  1  0  0  0  0
  9 35  1  0  0  0  0
 10 36  1  0  0  0  0
 10 37  1  0  0  0  0
 11 13  1  0  0  0  0
 12 14  2  0  0  0  0
 12 38  1  0  0  0  0
 13 14  1  0  0  0  0
 13 16  2  0  0  0  0
 14 15  1  0  0  0  0
 15 18  2  0  0  0  0
 15 19  1  0  0  0  0
 17 39  1  0  0  0  0
 18 20  1  0  0  0  0
 18 40  1  0  0  0  0
 19 21  2  0  0  0  0
 19 41  1  0  0  0  0
 20 22  2  0  0  0  0
 20 44  1  0  0  0  0
 21 22  1  0  0  0  0
 21 45  1  0  0  0  0
 23 24  2  0  0  0  0
 23 25  1  0  0  0  0
 24 26  1  0  0  0  0
 24 46  1  0  0  0  0
 25 27  2  0  0  0  0
 25 47  1  0  0  0  0
 26 28  2  0  0  0  0
 26 48  1  0  0  0  0
 27 28  1  0  0  0  0
 27 49  1  0  0  0  0
 28 50  1  0  0  0  0
M  END
> <PUBCHEM_COMPOUND_CID>
6603792

> <PUBCHEM_COMPOUND_CANONICALIZED>
1

> <PUBCHEM_CACTVS_COMPLEXITY>
497

> <PUBCHEM_CACTVS_HBOND_ACCEPTOR>
4

> <PUBCHEM_CACTVS_HBOND_DONOR>
1

> <PUBCHEM_CACTVS_ROTATABLE_BOND>
4

> <PUBCHEM_CACTVS_SUBSKEYS>
AAADceB7oAAAAAAAAAAAAAAAAAAAAeIAAAA8YIAAAAAAAFgB/AAAHgAQAAAADCzBmwQ9tt9MFACgAjJnZACCiCkxIKAJ2CAuTJiMLmLE+duGPCjswBPI6CeQwPAOoAAAAAAAAABAAAAAAAAAAAAAAAAAAA==

> <PUBCHEM_IUPAC_OPENEYE_NAME>
7-cyclopentyl-5-(4-phenoxyphenyl)pyrrolo[2,3-d]pyrimidin-4-amine

> <PUBCHEM_IUPAC_CAS_NAME>
7-cyclopentyl-5-(4-phenoxyphenyl)-4-pyrrolo[2,3-d]pyrimidinamine

> <PUBCHEM_IUPAC_NAME>
7-cyclopentyl-5-(4-phenoxyphenyl)pyrrolo[2,3-d]pyrimidin-4-amine

> <PUBCHEM_IUPAC_SYSTEMATIC_NAME>
7-cyclopentyl-5-(4-phenoxyphenyl)pyrrolo[2,3-d]pyrimidin-4-amine

> <PUBCHEM_IUPAC_TRADITIONAL_NAME>
[7-cyclopentyl-5-(4-phenoxyphenyl)pyrrolo[2,3-d]pyrimidin-4-yl]amine

> <PUBCHEM_IUPAC_INCHI>
InChI=1S/C23H22N4O/c24-22-21-20(14-27(17-6-4-5-7-17)23(21)26-15-25-22)16-10-12-19(13-11-16)28-18-8-2-1-3-9-18/h1-3,8-15,17H,4-7H2,(H2,24,25,26)

> <PUBCHEM_IUPAC_INCHIKEY>
FMETVQKSDIOGPX-UHFFFAOYSA-N

> <PUBCHEM_XLOGP3_AA>
4.6

> <PUBCHEM_EXACT_MASS>
370.179

> <PUBCHEM_MOLECULAR_FORMULA>
C23H22N4O

> <PUBCHEM_MOLECULAR_WEIGHT>
370.456

> <PUBCHEM_OPENEYE_CAN_SMILES>
C1CCC(C1)N2C=C(C3=C2N=CN=C3N)C4=CC=C(C=C4)OC5=CC=CC=C5

> <PUBCHEM_OPENEYE_ISO_SMILES>
C1CCC(C1)N2C=C(C3=C2N=CN=C3N)C4=CC=C(C=C4)OC5=CC=CC=C5

> <PUBCHEM_CACTVS_TPSA>
66

> <PUBCHEM_MONOISOTOPIC_WEIGHT>
370.179

> <PUBCHEM_TOTAL_CHARGE>
0

> <PUBCHEM_HEAVY_ATOM_COUNT>
28

> <PUBCHEM_ATOM_DEF_STEREO_COUNT>
0

> <PUBCHEM_ATOM_UDEF_STEREO_COUNT>
0

> <PUBCHEM_BOND_DEF_STEREO_COUNT>
0

> <PUBCHEM_BOND_UDEF_STEREO_COUNT>
0

> <PUBCHEM_ISOTOPIC_ATOM_COUNT>
0

> <PUBCHEM_COMPONENT_COUNT>
1

> <PUBCHEM_CACTVS_TAUTO_COUNT>
4

> <PUBCHEM_COORDINATE_TYPE>
1
5
255

> <PUBCHEM_BONDANNOTATIONS>
11  13  8
12  14  8
13  14  8
13  16  8
15  18  8
15  19  8
18  20  8
19  21  8
2  11  8
2  12  8
20  22  8
21  22  8
23  24  8
23  25  8
24  26  8
25  27  8
26  28  8
27  28  8
3  11  8
3  17  8
4  16  8
4  17  8

$$$$
2049
  -OEChem-11021605012D

 34 36  0     0  0  0  0  0  0999 V2000
    2.0000   -0.7363    0.0000 O   0  0  0  0  0  0  0  0  0  0  0  0
    2.0000    1.2637    0.0000 O   0  0  0  0  0  0  0  0  0  0  0  0
    5.4920   -0.7709    0.0000 N   0  0  0  0  0  0  0  0  0  0  0  0
    5.4920    1.2984    0.0000 N   0  0  0  0  0  0  0  0  0  0  0  0
    4.5981   -0.2363    0.0000 C   0  0  0  0  0  0  0  0  0  0  0  0
    4.5981    0.7637    0.0000 C   0  0  0  0  0  0  0  0  0  0  0  0
    6.3981   -0.2571    0.0000 C   0  0  0  0  0  0  0  0  0  0  0  0
    3.7320   -0.7363    0.0000 C   0  0  0  0  0  0  0  0  0  0  0  0
    2.8660   -0.2363    0.0000 C   0  0  0  0  0  0  0  0  0  0  0  0
    3.7320    1.2637    0.0000 C   0  0  0  0  0  0  0  0  0  0  0  0
    2.8660    0.7637    0.0000 C   0  0  0  0  0  0  0  0  0  0  0  0
    7.2622   -0.7604    0.0000 C   0  0  0  0  0  0  0  0  0  0  0  0
    6.3981    0.7846    0.0000 C   0  0  0  0  0  0  0  0  0  0  0  0
    7.2583   -1.7604    0.0000 C   0  0  0  0  0  0  0  0  0  0  0  0
    8.1301   -0.2638    0.0000 C   0  0  0  0  0  0  0  0  0  0  0  0
    8.1224   -2.2637    0.0000 C   0  0  0  0  0  0  0  0  0  0  0  0
    8.9942   -0.7671    0.0000 C   0  0  0  0  0  0  0  0  0  0  0  0
    8.9904   -1.7671    0.0000 C   0  0  0  0  0  0  0  0  0  0  0  0
    2.0000   -1.7363    0.0000 C   0  0  0  0  0  0  0  0  0  0  0  0
    2.0000    2.2637    0.0000 C   0  0  0  0  0  0  0  0  0  0  0  0
    3.7320   -1.3563    0.0000 H   0  0  0  0  0  0  0  0  0  0  0  0
    3.7320    1.8837    0.0000 H   0  0  0  0  0  0  0  0  0  0  0  0
    6.9338    1.0966    0.0000 H   0  0  0  0  0  0  0  0  0  0  0  0
    6.7202   -2.0683    0.0000 H   0  0  0  0  0  0  0  0  0  0  0  0
    8.1325    0.3562    0.0000 H   0  0  0  0  0  0  0  0  0  0  0  0
    8.1200   -2.8837    0.0000 H   0  0  0  0  0  0  0  0  0  0  0  0
    9.5323   -0.4592    0.0000 H   0  0  0  0  0  0  0  0  0  0  0  0
    9.5261   -2.0792    0.0000 H   0  0  0  0  0  0  0  0  0  0  0  0
    1.3800   -1.7363    0.0000 H   0  0  0  0  0  0  0  0  0  0  0  0
    2.0000   -2.3563    0.0000 H   0  0  0  0  0  0  0  0  0  0  0  0
    2.6200   -1.7363    0.0000 H   0  0  0  0  0  0  0  0  0  0  0  0
    2.6200    2.2637    0.0000 H   0  0  0  0  0  0  0  0  0  0  0  0
    2.0000    2.8837    0.0000 H   0  0  0  0  0  0  0  0  0  0  0  0
    1.3800    2.2637    0.0000 H   0  0  0  0  0  0  0  0  0  0  0  0
  1  9  1  0  0  0  0
  1 19  1  0  0  0  0
  2 11  1  0  0  0  0
  2 20  1  0  0  0  0
  3  5  1  0  0  0  0
  3  7  2  0  0  0  0
  4  6  1  0  0  0  0
  4 13  2  0  0  0  0
  5  6  1  0  0  0  0
  5  8  2  0  0  0  0
  6 10  2  0  0  0  0
  7 12  1  0  0  0  0
  7 13  1  0  0  0  0
  8  9  1  0  0  0  0
  8 21  1  0  0  0  0
  9 11  2  0  0  0  0
 10 11  1  0  0  0  0
 10 22  1  0  0  0  0
 12 14  2  0  0  0  0
 12 15  1  0  0  0  0
 13 23  1  0  0  0  0
 14 16  1  0  0  0  0
 14 24  1  0  0  0  0
 15 17  2  0  0  0  0
 15 25  1  0  0  0  0
 16 18  2  0  0  0  0
 16 26  1  0  0  0  0
 17 18  1  0  0  0  0
 17 27  1  0  0  0  0
 18 28  1  0  0  0  0
 19 29  1  0  0  0  0
 19 30  1  0  0  0  0
 19 31  1  0  0  0  0
 20 32  1  0  0  0  0
 20 33  1  0  0  0  0
 20 34  1  0  0  0  0
M  END
> <PUBCHEM_COMPOUND_CID>
2049

> <PUBCHEM_COMPOUND_CANONICALIZED>
1

> <PUBCHEM_CACTVS_COMPLEXITY>
307

> <PUBCHEM_CACTVS_HBOND_ACCEPTOR>
4

> <PUBCHEM_CACTVS_HBOND_DONOR>
0

> <PUBCHEM_CACTVS_ROTATABLE_BOND>
3

> <PUBCHEM_CACTVS_SUBSKEYS>
AAADccB7MAAAAAAAAAAAAAAAAAAAAAAAAAA8YIAAAAAAAACx9AAAHgAAAAAADAzBngY+xrIIFACgAzRnRACCiCQxMiAI2CA+/JgNZuLEsZuUMCpmwBnK6Aew0IMOAEAAAgAAQCAAgAAEAACAQAAAAAAAAA==

> <PUBCHEM_IUPAC_OPENEYE_NAME>
6,7-dimethoxy-2-phenyl-quinoxaline

> <PUBCHEM_IUPAC_CAS_NAME>
6,7-dimethoxy-2-phenylquinoxaline

> <PUBCHEM_IUPAC_NAME>
6,7-dimethoxy-2-phenylquinoxaline

> <PUBCHEM_IUPAC_SYSTEMATIC_NAME>
6,7-dimethoxy-2-phenyl-quinoxaline

> <PUBCHEM_IUPAC_TRADITIONAL_NAME>
6,7-dimethoxy-2-phenyl-quinoxaline

> <PUBCHEM_IUPAC_INCHI>
InChI=1S/C16H14N2O2/c1-19-15-8-12-13(9-16(15)20-2)18-14(10-17-12)11-6-4-3-5-7-11/h3-10H,1-2H3

> <PUBCHEM_IUPAC_INCHIKEY>
QNOXYUNHIGOWNY-UHFFFAOYSA-N

> <PUBCHEM_XLOGP3_AA>
2.8

> <PUBCHEM_EXACT_MASS>
266.106

> <PUBCHEM_MOLECULAR_FORMULA>
C16H14N2O2

> <PUBCHEM_MOLECULAR_WEIGHT>
266.3

> <PUBCHEM_OPENEYE_CAN_SMILES>
COC1=C(C=C2C(=C1)N=CC(=N2)C3=CC=CC=C3)OC

> <PUBCHEM_OPENEYE_ISO_SMILES>
COC1=C(C=C2C(=C1)N=CC(=N2)C3=CC=CC=C3)OC

> <PUBCHEM_CACTVS_TPSA>
44.2

> <PUBCHEM_MONOISOTOPIC_WEIGHT>
266.106

> <PUBCHEM_TOTAL_CHARGE>
0

> <PUBCHEM_HEAVY_ATOM_COUNT>
20

> <PUBCHEM_ATOM_DEF_STEREO_COUNT>
0

> <PUBCHEM_ATOM_UDEF_STEREO_COUNT>
0

> <PUBCHEM_BOND_DEF_STEREO_COUNT>
0

> <PUBCHEM_BOND_UDEF_STEREO_COUNT>
0

> <PUBCHEM_ISOTOPIC_ATOM_COUNT>
0

> <PUBCHEM_COMPONENT_COUNT>
1

> <PUBCHEM_CACTVS_TAUTO_COUNT>
1

> <PUBCHEM_COORDINATE_TYPE>
1
5
255

> <PUBCHEM_BONDANNOTATIONS>
10  11  8
12  14  8
12  15  8
14  16  8
15  17  8
16  18  8
17  18  8
3  5  8
3  7  8
4  13  8
4  6  8
5  6  8
5  8  8
6  10  8
7  13  8
8  9  8
9  11  8

$$$$
16760286
  -OEChem-11021605012D

 40 43  0     0  0  0  0  0  0999 V2000
    5.7646    2.5713    0.0000 O   0  0  0  0  0  0  0  0  0  0  0  0
    2.0000   -2.4540    0.0000 O   0  5  0  0  0  0  0  0  0  0  0  0
    2.0570   -0.7229    0.0000 O   0  0  0  0  0  0  0  0  0  0  0  0
    6.5625   -1.5050    0.0000 N   0  0  0  0  0  0  0  0  0  0  0  0
    7.1985    1.6703    0.0000 N   0  0  0  0  0  0  0  0  0  0  0  0
    2.5282   -1.6049    0.0000 N   0  3  0  0  0  0  0  0  0  0  0  0
   12.4977   -2.2652    0.0000 N   0  0  0  0  0  0  0  0  0  0  0  0
    5.7976   -0.0864    0.0000 C   0  0  0  0  0  0  0  0  0  0  0  0
    6.6985   -0.5203    0.0000 C   0  0  0  0  0  0  0  0  0  0  0  0
    5.1125   -0.8067    0.0000 C   0  0  0  0  0  0  0  0  0  0  0  0
    7.5995   -0.0864    0.0000 C   0  0  0  0  0  0  0  0  0  0  0  0
    5.5843   -1.6817    0.0000 C   0  0  0  0  0  0  0  0  0  0  0  0
    5.5750    0.8885    0.0000 C   0  0  0  0  0  0  0  0  0  0  0  0
    7.8220    0.8885    0.0000 C   0  0  0  0  0  0  0  0  0  0  0  0
    8.3521   -0.8066    0.0000 C   0  0  0  0  0  0  0  0  0  0  0  0
    6.1985    1.6703    0.0000 C   0  0  0  0  0  0  0  0  0  0  0  0
    4.0780   -0.7607    0.0000 C   0  0  0  0  0  0  0  0  0  0  0  0
    9.3498   -0.5073    0.0000 C   0  0  0  0  0  0  0  0  0  0  0  0
    5.0544   -2.5713    0.0000 C   0  0  0  0  0  0  0  0  0  0  0  0
    8.8125    1.2108    0.0000 C   0  0  0  0  0  0  0  0  0  0  0  0
    9.5815    0.5082    0.0000 C   0  0  0  0  0  0  0  0  0  0  0  0
    3.5277   -1.6378    0.0000 C   0  0  0  0  0  0  0  0  0  0  0  0
   10.0802   -1.1903    0.0000 C   0  0  0  0  0  0  0  0  0  0  0  0
    4.0192   -2.5492    0.0000 C   0  0  0  0  0  0  0  0  0  0  0  0
   11.0369   -0.8992    0.0000 C   0  0  0  0  0  0  0  0  0  0  0  0
   11.7673   -1.5822    0.0000 C   0  0  0  0  0  0  0  0  0  0  0  0
    5.1885    1.3732    0.0000 H   0  0  0  0  0  0  0  0  0  0  0  0
    5.0164    0.6195    0.0000 H   0  0  0  0  0  0  0  0  0  0  0  0
    7.0099   -1.9343    0.0000 H   0  0  0  0  0  0  0  0  0  0  0  0
    8.2071   -1.4094    0.0000 H   0  0  0  0  0  0  0  0  0  0  0  0
    3.7901   -0.2116    0.0000 H   0  0  0  0  0  0  0  0  0  0  0  0
    7.4676    2.2289    0.0000 H   0  0  0  0  0  0  0  0  0  0  0  0
    5.3549   -3.1136    0.0000 H   0  0  0  0  0  0  0  0  0  0  0  0
    8.9435    1.8168    0.0000 H   0  0  0  0  0  0  0  0  0  0  0  0
   10.1733    0.6933    0.0000 H   0  0  0  0  0  0  0  0  0  0  0  0
    9.5845   -1.5627    0.0000 H   0  0  0  0  0  0  0  0  0  0  0  0
   10.3609   -1.7431    0.0000 H   0  0  0  0  0  0  0  0  0  0  0  0
    3.6957   -3.0782    0.0000 H   0  0  0  0  0  0  0  0  0  0  0  0
   11.5325   -0.5267    0.0000 H   0  0  0  0  0  0  0  0  0  0  0  0
   10.7562   -0.3464    0.0000 H   0  0  0  0  0  0  0  0  0  0  0  0
  1 16  2  0  0  0  0
  2  6  1  0  0  0  0
  3  6  2  0  0  0  0
  4  9  1  0  0  0  0
  4 12  1  0  0  0  0
  4 29  1  0  0  0  0
  5 14  1  0  0  0  0
  5 16  1  0  0  0  0
  5 32  1  0  0  0  0
  6 22  1  0  0  0  0
  7 26  3  0  0  0  0
  8  9  2  0  0  0  0
  8 10  1  0  0  0  0
  8 13  1  0  0  0  0
  9 11  1  0  0  0  0
 10 12  2  0  0  0  0
 10 17  1  0  0  0  0
 11 14  2  0  0  0  0
 11 15  1  0  0  0  0
 12 19  1  0  0  0  0
 13 16  1  0  0  0  0
 13 27  1  0  0  0  0
 13 28  1  0  0  0  0
 14 20  1  0  0  0  0
 15 18  2  0  0  0  0
 15 30  1  0  0  0  0
 17 22  2  0  0  0  0
 17 31  1  0  0  0  0
 18 21  1  0  0  0  0
 18 23  1  0  0  0  0
 19 24  2  0  0  0  0
 19 33  1  0  0  0  0
 20 21  2  0  0  0  0
 20 34  1  0  0  0  0
 21 35  1  0  0  0  0
 22 24  1  0  0  0  0
 23 25  1  0  0  0  0
 23 36  1  0  0  0  0
 23 37  1  0  0  0  0
 24 38  1  0  0  0  0
 25 26  1  0  0  0  0
 25 39  1  0  0  0  0
 25 40  1  0  0  0  0
M  CHG  2   2  -1   6   1
M  END
> <PUBCHEM_COMPOUND_CID>
16760286

> <PUBCHEM_COMPOUND_CANONICALIZED>
1

> <PUBCHEM_CACTVS_COMPLEXITY>
624

> <PUBCHEM_CACTVS_HBOND_ACCEPTOR>
4

> <PUBCHEM_CACTVS_HBOND_DONOR>
2

> <PUBCHEM_CACTVS_ROTATABLE_BOND>
2

> <PUBCHEM_CACTVS_SUBSKEYS>
AAADccB7sAAAAAAAAAAAAAAAAAAAAWAAAAAwYAAABYAAAFix9AAAHgAUAAAADAiBngAwwPLZ0AC5ByVyVwCCgCAhAiAomSEwZJoIoPLA1ZGEIAhglADIyA8cicCeiACCQAACAAAQAQSAAAQAAAAAAAAAAA==

> <PUBCHEM_IUPAC_OPENEYE_NAME>
3-(9-nitro-6-oxo-7,12-dihydro-5H-indolo[3,2-d][1]benzazepin-2-yl)propanenitrile

> <PUBCHEM_IUPAC_CAS_NAME>
3-(9-nitro-6-oxo-7,12-dihydro-5H-indolo[3,2-d][1]benzazepin-2-yl)propanenitrile

> <PUBCHEM_IUPAC_NAME>
3-(9-nitro-6-oxo-7,12-dihydro-5H-indolo[3,2-d][1]benzazepin-2-yl)propanenitrile

> <PUBCHEM_IUPAC_SYSTEMATIC_NAME>
3-(9-nitro-6-oxidanylidene-7,12-dihydro-5H-indolo[3,2-d][1]benzazepin-2-yl)propanenitrile

> <PUBCHEM_IUPAC_TRADITIONAL_NAME>
3-(6-keto-9-nitro-7,12-dihydro-5H-indolo[3,2-d][1]benzazepin-2-yl)propionitrile

> <PUBCHEM_IUPAC_INCHI>
InChI=1S/C19H14N4O3/c20-7-1-2-11-3-5-17-15(8-11)19-14(10-18(24)21-17)13-9-12(23(25)26)4-6-16(13)22-19/h3-6,8-9,22H,1-2,10H2,(H,21,24)

> <PUBCHEM_IUPAC_INCHIKEY>
UBLFSMURWWWWMH-UHFFFAOYSA-N

> <PUBCHEM_XLOGP3_AA>
2.3

> <PUBCHEM_EXACT_MASS>
346.107

> <PUBCHEM_MOLECULAR_FORMULA>
C19H14N4O3

> <PUBCHEM_MOLECULAR_WEIGHT>
346.346

> <PUBCHEM_OPENEYE_CAN_SMILES>
C1C2=C(C3=C(C=CC(=C3)CCC#N)NC1=O)NC4=C2C=C(C=C4)[N+](=O)[O-]

> <PUBCHEM_OPENEYE_ISO_SMILES>
C1C2=C(C3=C(C=CC(=C3)CCC#N)NC1=O)NC4=C2C=C(C=C4)[N+](=O)[O-]

> <PUBCHEM_CACTVS_TPSA>
115

> <PUBCHEM_MONOISOTOPIC_WEIGHT>
346.107

> <PUBCHEM_TOTAL_CHARGE>
0

> <PUBCHEM_HEAVY_ATOM_COUNT>
26

> <PUBCHEM_ATOM_DEF_STEREO_COUNT>
0

> <PUBCHEM_ATOM_UDEF_STEREO_COUNT>
0

> <PUBCHEM_BOND_DEF_STEREO_COUNT>
0

> <PUBCHEM_BOND_UDEF_STEREO_COUNT>
0

> <PUBCHEM_ISOTOPIC_ATOM_COUNT>
0

> <PUBCHEM_COMPONENT_COUNT>
1

> <PUBCHEM_CACTVS_TAUTO_COUNT>
3

> <PUBCHEM_COORDINATE_TYPE>
1
5
255

> <PUBCHEM_BONDANNOTATIONS>
10  12  8
10  17  8
11  14  8
11  15  8
12  19  8
14  20  8
15  18  8
17  22  8
18  21  8
19  24  8
20  21  8
22  24  8
4  12  8
4  9  8
8  10  8
8  9  8

$$$$
11554659
  -OEChem-11021605012D

 57 60  0     0  0  0  0  0  0999 V2000
    8.0379   -2.2623    0.0000 S   0  0  0  0  0  0  0  0  0  0  0  0
    5.4804    1.2675    0.0000 O   0  0  0  0  0  0  0  0  0  0  0  0
    2.0000    2.3021    0.0000 O   0  0  0  0  0  0  0  0  0  0  0  0
    2.0000    4.3021    0.0000 O   0  0  0  0  0  0  0  0  0  0  0  0
    8.8865   -3.7722    0.0000 O   0  0  0  0  0  0  0  0  0  0  0  0
    5.4920    4.3368    0.0000 N   0  0  0  0  0  0  0  0  0  0  0  0
    8.9212   -0.7724    0.0000 N   0  0  0  0  0  0  0  0  0  0  0  0
    9.7698   -2.2823    0.0000 N   0  0  0  0  0  0  0  0  0  0  0  0
    4.5981    2.8021    0.0000 C   0  0  0  0  0  0  0  0  0  0  0  0
    4.5981    3.8021    0.0000 C   0  0  0  0  0  0  0  0  0  0  0  0
    5.4920    2.2675    0.0000 C   0  0  0  0  0  0  0  0  0  0  0  0
    3.7320    2.3021    0.0000 C   0  0  0  0  0  0  0  0  0  0  0  0
    2.8660    2.8021    0.0000 C   0  0  0  0  0  0  0  0  0  0  0  0
    3.7320    4.3021    0.0000 C   0  0  0  0  0  0  0  0  0  0  0  0
    2.8660    3.8021    0.0000 C   0  0  0  0  0  0  0  0  0  0  0  0
    6.3981    2.7813    0.0000 C   0  0  0  0  0  0  0  0  0  0  0  0
    6.3406    0.7576    0.0000 C   0  0  0  0  0  0  0  0  0  0  0  0
    6.3981    3.8229    0.0000 C   0  0  0  0  0  0  0  0  0  0  0  0
    8.0610   -0.2624    0.0000 C   0  0  0  0  0  0  0  0  0  0  0  0
    6.3291   -0.2424    0.0000 C   0  0  0  0  0  0  0  0  0  0  0  0
    7.2124    1.2475    0.0000 C   0  0  0  0  0  0  0  0  0  0  0  0
   10.6184   -3.7922    0.0000 C   0  0  0  0  0  0  0  0  0  0  0  0
   10.6069   -4.7922    0.0000 C   0  0  0  0  0  0  0  0  0  0  0  0
    7.1893   -0.7524    0.0000 C   0  0  0  0  0  0  0  0  0  0  0  0
    8.0726    0.7375    0.0000 C   0  0  0  0  0  0  0  0  0  0  0  0
    9.7583   -3.2822    0.0000 C   0  0  0  0  0  0  0  0  0  0  0  0
   11.4902   -3.3023    0.0000 C   0  0  0  0  0  0  0  0  0  0  0  0
   11.4671   -5.3021    0.0000 C   0  0  0  0  0  0  0  0  0  0  0  0
    9.7351   -5.2821    0.0000 C   0  0  0  0  0  0  0  0  0  0  0  0
    8.9096   -1.7723    0.0000 C   0  0  0  0  0  0  0  0  0  0  0  0
   12.3504   -3.8122    0.0000 C   0  0  0  0  0  0  0  0  0  0  0  0
   12.3388   -4.8122    0.0000 C   0  0  0  0  0  0  0  0  0  0  0  0
    2.0000    1.3021    0.0000 C   0  0  0  0  0  0  0  0  0  0  0  0
    2.0000    5.3021    0.0000 C   0  0  0  0  0  0  0  0  0  0  0  0
    3.7320    1.6821    0.0000 H   0  0  0  0  0  0  0  0  0  0  0  0
    3.7320    4.9221    0.0000 H   0  0  0  0  0  0  0  0  0  0  0  0
    6.9338    2.4692    0.0000 H   0  0  0  0  0  0  0  0  0  0  0  0
    6.9338    4.1350    0.0000 H   0  0  0  0  0  0  0  0  0  0  0  0
    5.7886   -0.5461    0.0000 H   0  0  0  0  0  0  0  0  0  0  0  0
    7.2196    1.8675    0.0000 H   0  0  0  0  0  0  0  0  0  0  0  0
    7.1821   -1.3723    0.0000 H   0  0  0  0  0  0  0  0  0  0  0  0
    8.6131    1.0413    0.0000 H   0  0  0  0  0  0  0  0  0  0  0  0
    9.4617   -0.4686    0.0000 H   0  0  0  0  0  0  0  0  0  0  0  0
   11.4974   -2.6823    0.0000 H   0  0  0  0  0  0  0  0  0  0  0  0
   11.4599   -5.9221    0.0000 H   0  0  0  0  0  0  0  0  0  0  0  0
    9.4314   -4.7416    0.0000 H   0  0  0  0  0  0  0  0  0  0  0  0
    9.1946   -5.5859    0.0000 H   0  0  0  0  0  0  0  0  0  0  0  0
   10.0389   -5.8226    0.0000 H   0  0  0  0  0  0  0  0  0  0  0  0
   10.3103   -1.9785    0.0000 H   0  0  0  0  0  0  0  0  0  0  0  0
   12.8909   -3.5085    0.0000 H   0  0  0  0  0  0  0  0  0  0  0  0
   12.8721   -5.1284    0.0000 H   0  0  0  0  0  0  0  0  0  0  0  0
    1.3800    1.3021    0.0000 H   0  0  0  0  0  0  0  0  0  0  0  0
    2.0000    0.6821    0.0000 H   0  0  0  0  0  0  0  0  0  0  0  0
    2.6200    1.3021    0.0000 H   0  0  0  0  0  0  0  0  0  0  0  0
    2.6200    5.3021    0.0000 H   0  0  0  0  0  0  0  0  0  0  0  0
    2.0000    5.9221    0.0000 H   0  0  0  0  0  0  0  0  0  0  0  0
    1.3800    5.3021    0.0000 H   0  0  0  0  0  0  0  0  0  0  0  0
  1 30  2  0  0  0  0
  2 11  1  0  0  0  0
  2 17  1  0  0  0  0
  3 13  1  0  0  0  0
  3 33  1  0  0  0  0
  4 15  1  0  0  0  0
  4 34  1  0  0  0  0
  5 26  2  0  0  0  0
  6 10  2  0  0  0  0
  6 18  1  0  0  0  0
  7 19  1  0  0  0  0
  7 30  1  0  0  0  0
  7 43  1  0  0  0  0
  8 26  1  0  0  0  0
  8 30  1  0  0  0  0
  8 49  1  0  0  0  0
  9 10  1  0  0  0  0
  9 11  2  0  0  0  0
  9 12  1  0  0  0  0
 10 14  1  0  0  0  0
 11 16  1  0  0  0  0
 12 13  2  0  0  0  0
 12 35  1  0  0  0  0
 13 15  1  0  0  0  0
 14 15  2  0  0  0  0
 14 36  1  0  0  0  0
 16 18  2  0  0  0  0
 16 37  1  0  0  0  0
 17 20  2  0  0  0  0
 17 21  1  0  0  0  0
 18 38  1  0  0  0  0
 19 24  2  0  0  0  0
 19 25  1  0  0  0  0
 20 24  1  0  0  0  0
 20 39  1  0  0  0  0
 21 25  2  0  0  0  0
 21 40  1  0  0  0  0
 22 23  1  0  0  0  0
 22 26  1  0  0  0  0
 22 27  2  0  0  0  0
 23 28  2  0  0  0  0
 23 29  1  0  0  0  0
 24 41  1  0  0  0  0
 25 42  1  0  0  0  0
 27 31  1  0  0  0  0
 27 44  1  0  0  0  0
 28 32  1  0  0  0  0
 28 45  1  0  0  0  0
 29 46  1  0  0  0  0
 29 47  1  0  0  0  0
 29 48  1  0  0  0  0
 31 32  2  0  0  0  0
 31 50  1  0  0  0  0
 32 51  1  0  0  0  0
 33 52  1  0  0  0  0
 33 53  1  0  0  0  0
 33 54  1  0  0  0  0
 34 55  1  0  0  0  0
 34 56  1  0  0  0  0
 34 57  1  0  0  0  0
M  END
> <PUBCHEM_COMPOUND_CID>
11554659

> <PUBCHEM_COMPOUND_CANONICALIZED>
1

> <PUBCHEM_CACTVS_COMPLEXITY>
687

> <PUBCHEM_CACTVS_HBOND_ACCEPTOR>
6

> <PUBCHEM_CACTVS_HBOND_DONOR>
2

> <PUBCHEM_CACTVS_ROTATABLE_BOND>
6

> <PUBCHEM_CACTVS_SUBSKEYS>
AAADceB7OABAAAAAAAAAAAAAAAAAAAAAAAA8YMEAAAAAAACx9AAAHgQQAAAADAzBngY/xvLIFACsAzV3VACCiCA1IikI2CE+7NiNJvLEtZuGOSru0RvK6af4+L+OoEABAgASQABAgAIEACSAAAAAAAAAAA==

> <PUBCHEM_IUPAC_OPENEYE_NAME>
N-[[4-[(6,7-dimethoxy-4-quinolyl)oxy]phenyl]carbamothioyl]-2-methyl-benzamide

> <PUBCHEM_IUPAC_CAS_NAME>
N-[[4-[(6,7-dimethoxy-4-quinolinyl)oxy]anilino]-sulfanylidenemethyl]-2-methylbenzamide

> <PUBCHEM_IUPAC_NAME>
N-[[4-(6,7-dimethoxyquinolin-4-yl)oxyphenyl]carbamothioyl]-2-methylbenzamide

> <PUBCHEM_IUPAC_SYSTEMATIC_NAME>
N-[[4-(6,7-dimethoxyquinolin-4-yl)oxyphenyl]carbamothioyl]-2-methyl-benzamide

> <PUBCHEM_IUPAC_TRADITIONAL_NAME>
N-[[4-[(6,7-dimethoxy-4-quinolyl)oxy]phenyl]thiocarbamoyl]-2-methyl-benzamide

> <PUBCHEM_IUPAC_INCHI>
InChI=1S/C26H23N3O4S/c1-16-6-4-5-7-19(16)25(30)29-26(34)28-17-8-10-18(11-9-17)33-22-12-13-27-21-15-24(32-3)23(31-2)14-20(21)22/h4-15H,1-3H3,(H2,28,29,30,34)

> <PUBCHEM_IUPAC_INCHIKEY>
ZXGIBSBJQLLUEE-UHFFFAOYSA-N

> <PUBCHEM_XLOGP3_AA>
5.6

> <PUBCHEM_EXACT_MASS>
473.141

> <PUBCHEM_MOLECULAR_FORMULA>
C26H23N3O4S

> <PUBCHEM_MOLECULAR_WEIGHT>
473.547

> <PUBCHEM_OPENEYE_CAN_SMILES>
CC1=CC=CC=C1C(=O)NC(=S)NC2=CC=C(C=C2)OC3=C4C=C(C(=CC4=NC=C3)OC)OC

> <PUBCHEM_OPENEYE_ISO_SMILES>
CC1=CC=CC=C1C(=O)NC(=S)NC2=CC=C(C=C2)OC3=C4C=C(C(=CC4=NC=C3)OC)OC

> <PUBCHEM_CACTVS_TPSA>
114

> <PUBCHEM_MONOISOTOPIC_WEIGHT>
473.141

> <PUBCHEM_TOTAL_CHARGE>
0

> <PUBCHEM_HEAVY_ATOM_COUNT>
34

> <PUBCHEM_ATOM_DEF_STEREO_COUNT>
0

> <PUBCHEM_ATOM_UDEF_STEREO_COUNT>
0

> <PUBCHEM_BOND_DEF_STEREO_COUNT>
0

> <PUBCHEM_BOND_UDEF_STEREO_COUNT>
0

> <PUBCHEM_ISOTOPIC_ATOM_COUNT>
0

> <PUBCHEM_COMPONENT_COUNT>
1

> <PUBCHEM_CACTVS_TAUTO_COUNT>
5

> <PUBCHEM_COORDINATE_TYPE>
1
5
255

> <PUBCHEM_BONDANNOTATIONS>
10  14  8
11  16  8
12  13  8
13  15  8
14  15  8
16  18  8
17  20  8
17  21  8
19  24  8
19  25  8
20  24  8
21  25  8
22  23  8
22  27  8
23  28  8
27  31  8
28  32  8
31  32  8
6  10  8
6  18  8
9  10  8
9  11  8
9  12  8

$$$$
448014
  -OEChem-11021605012D

 33 34  0     0  0  0  0  0  0999 V2000
    3.7891    2.7071    0.0000 S   0  0  0  0  0  0  0  0  0  0  0  0
    2.8660   -4.8807    0.0000 O   0  0  0  0  0  0  0  0  0  0  0  0
    2.8660    1.1193    0.0000 O   0  0  0  0  0  0  0  0  0  0  0  0
    3.9170    5.3807    0.0000 O   0  5  0  0  0  0  0  0  0  0  0  0
    2.5158    4.3626    0.0000 O   0  0  0  0  0  0  0  0  0  0  0  0
    3.7320   -0.3807    0.0000 N   0  0  0  0  0  0  0  0  0  0  0  0
    4.5981    1.1193    0.0000 N   0  0  0  0  0  0  0  0  0  0  0  0
    5.4071    2.7071    0.0000 N   0  0  0  0  0  0  0  0  0  0  0  0
    3.5103    4.4672    0.0000 N   0  3  0  0  0  0  0  0  0  0  0  0
    2.8660   -1.8807    0.0000 C   0  0  0  0  0  0  0  0  0  0  0  0
    2.8660   -0.8807    0.0000 C   0  0  0  0  0  0  0  0  0  0  0  0
    2.0000   -2.3807    0.0000 C   0  0  0  0  0  0  0  0  0  0  0  0
    3.7320   -2.3807    0.0000 C   0  0  0  0  0  0  0  0  0  0  0  0
    2.8660   -3.8807    0.0000 C   0  0  0  0  0  0  0  0  0  0  0  0
    2.0000   -3.3807    0.0000 C   0  0  0  0  0  0  0  0  0  0  0  0
    3.7320   -3.3807    0.0000 C   0  0  0  0  0  0  0  0  0  0  0  0
    3.7320    0.6193    0.0000 C   0  0  0  0  0  0  0  0  0  0  0  0
    4.5981    2.1193    0.0000 C   0  0  0  0  0  0  0  0  0  0  0  0
    4.0981    3.6581    0.0000 C   0  0  0  0  0  0  0  0  0  0  0  0
    5.0981    3.6581    0.0000 C   0  0  0  0  0  0  0  0  0  0  0  0
    2.0000   -5.3807    0.0000 C   0  0  0  0  0  0  0  0  0  0  0  0
    2.6540   -0.2981    0.0000 H   0  0  0  0  0  0  0  0  0  0  0  0
    2.2554   -0.9884    0.0000 H   0  0  0  0  0  0  0  0  0  0  0  0
    1.4631   -2.0707    0.0000 H   0  0  0  0  0  0  0  0  0  0  0  0
    4.2690   -2.0707    0.0000 H   0  0  0  0  0  0  0  0  0  0  0  0
    4.2690   -0.6907    0.0000 H   0  0  0  0  0  0  0  0  0  0  0  0
    1.4631   -3.6907    0.0000 H   0  0  0  0  0  0  0  0  0  0  0  0
    4.2690   -3.6907    0.0000 H   0  0  0  0  0  0  0  0  0  0  0  0
    5.1350    0.8093    0.0000 H   0  0  0  0  0  0  0  0  0  0  0  0
    5.4625    4.1597    0.0000 H   0  0  0  0  0  0  0  0  0  0  0  0
    1.6900   -4.8438    0.0000 H   0  0  0  0  0  0  0  0  0  0  0  0
    1.4631   -5.6907    0.0000 H   0  0  0  0  0  0  0  0  0  0  0  0
    2.3100   -5.9176    0.0000 H   0  0  0  0  0  0  0  0  0  0  0  0
  1 18  1  0  0  0  0
  1 19  1  0  0  0  0
  2 14  1  0  0  0  0
  2 21  1  0  0  0  0
  3 17  2  0  0  0  0
  4  9  1  0  0  0  0
  5  9  2  0  0  0  0
  6 11  1  0  0  0  0
  6 17  1  0  0  0  0
  6 26  1  0  0  0  0
  7 17  1  0  0  0  0
  7 18  1  0  0  0  0
  7 29  1  0  0  0  0
  8 18  2  0  0  0  0
  8 20  1  0  0  0  0
  9 19  1  0  0  0  0
 10 11  1  0  0  0  0
 10 12  2  0  0  0  0
 10 13  1  0  0  0  0
 11 22  1  0  0  0  0
 11 23  1  0  0  0  0
 12 15  1  0  0  0  0
 12 24  1  0  0  0  0
 13 16  2  0  0  0  0
 13 25  1  0  0  0  0
 14 15  2  0  0  0  0
 14 16  1  0  0  0  0
 15 27  1  0  0  0  0
 16 28  1  0  0  0  0
 19 20  2  0  0  0  0
 20 30  1  0  0  0  0
 21 31  1  0  0  0  0
 21 32  1  0  0  0  0
 21 33  1  0  0  0  0
M  CHG  2   4  -1   9   1
M  END
> <PUBCHEM_COMPOUND_CID>
448014

> <PUBCHEM_COMPOUND_CANONICALIZED>
1

> <PUBCHEM_CACTVS_COMPLEXITY>
371

> <PUBCHEM_CACTVS_HBOND_ACCEPTOR>
6

> <PUBCHEM_CACTVS_HBOND_DONOR>
2

> <PUBCHEM_CACTVS_ROTATABLE_BOND>
4

> <PUBCHEM_CACTVS_SUBSKEYS>
AAADccBzuABAAAAAAAAAAAAAAAAAAWAAAAAwAAAAAAAAAAABwAAAHgQUAAAADATB2gY/l5LYVAitAjBndwCC+KlxOjlpyIwOPIqMZiKEsRuUMChsx5MIqCeQ0AIOIAAAAAAAAABAAAAAAAAAAAAAAAAAAA==

> <PUBCHEM_IUPAC_OPENEYE_NAME>
1-[(4-methoxyphenyl)methyl]-3-(5-nitrothiazol-2-yl)urea

> <PUBCHEM_IUPAC_CAS_NAME>
1-[(4-methoxyphenyl)methyl]-3-(5-nitro-2-thiazolyl)urea

> <PUBCHEM_IUPAC_NAME>
1-[(4-methoxyphenyl)methyl]-3-(5-nitro-1,3-thiazol-2-yl)urea

> <PUBCHEM_IUPAC_SYSTEMATIC_NAME>
1-[(4-methoxyphenyl)methyl]-3-(5-nitro-1,3-thiazol-2-yl)urea

> <PUBCHEM_IUPAC_TRADITIONAL_NAME>
1-(5-nitrothiazol-2-yl)-3-p-anisyl-urea

> <PUBCHEM_IUPAC_INCHI>
InChI=1S/C12H12N4O4S/c1-20-9-4-2-8(3-5-9)6-13-11(17)15-12-14-7-10(21-12)16(18)19/h2-5,7H,6H2,1H3,(H2,13,14,15,17)

> <PUBCHEM_IUPAC_INCHIKEY>
YAEMHJKFIIIULI-UHFFFAOYSA-N

> <PUBCHEM_XLOGP3>
2.6

> <PUBCHEM_EXACT_MASS>
308.058

> <PUBCHEM_MOLECULAR_FORMULA>
C12H12N4O4S

> <PUBCHEM_MOLECULAR_WEIGHT>
308.312

> <PUBCHEM_OPENEYE_CAN_SMILES>
COC1=CC=C(C=C1)CNC(=O)NC2=NC=C(S2)[N+](=O)[O-]

> <PUBCHEM_OPENEYE_ISO_SMILES>
COC1=CC=C(C=C1)CNC(=O)NC2=NC=C(S2)[N+](=O)[O-]

> <PUBCHEM_CACTVS_TPSA>
137

> <PUBCHEM_MONOISOTOPIC_WEIGHT>
308.058

> <PUBCHEM_TOTAL_CHARGE>
0

> <PUBCHEM_HEAVY_ATOM_COUNT>
21

> <PUBCHEM_ATOM_DEF_STEREO_COUNT>
0

> <PUBCHEM_ATOM_UDEF_STEREO_COUNT>
0

> <PUBCHEM_BOND_DEF_STEREO_COUNT>
0

> <PUBCHEM_BOND_UDEF_STEREO_COUNT>
0

> <PUBCHEM_ISOTOPIC_ATOM_COUNT>
0

> <PUBCHEM_COMPONENT_COUNT>
1

> <PUBCHEM_CACTVS_TAUTO_COUNT>
5

> <PUBCHEM_COORDINATE_TYPE>
1
5
255

> <PUBCHEM_BONDANNOTATIONS>
1  18  8
1  19  8
10  12  8
10  13  8
12  15  8
13  16  8
14  15  8
14  16  8
19  20  8
8  18  8
8  20  8

$$$$
657356
  -OEChem-11021605012D

 60 64  0     0  0  0  0  0  0999 V2000
    9.7942    3.4400    0.0000 S   0  0  0  0  0  0  0  0  0  0  0  0
    5.4641   -4.0600    0.0000 F   0  0  0  0  0  0  0  0  0  0  0  0
    2.0000    1.9400    0.0000 F   0  0  0  0  0  0  0  0  0  0  0  0
   11.5263    0.4400    0.0000 O   0  0  0  0  0  0  0  0  0  0  0  0
    8.0622    1.4400    0.0000 N   0  0  0  0  0  0  0  0  0  0  0  0
   10.6603    1.9400    0.0000 N   0  0  0  0  0  0  0  0  0  0  0  0
   11.5263    3.4400    0.0000 N   0  0  0  0  0  0  0  0  0  0  0  0
    7.1962    1.9400    0.0000 C   0  0  0  0  0  0  0  0  0  0  0  0
    8.0622    0.4400    0.0000 C   0  0  0  0  0  0  0  0  0  0  0  0
    7.1962   -0.0600    0.0000 C   0  0  0  0  0  0  0  0  0  0  0  0
    6.3301    1.4400    0.0000 C   0  0  0  0  0  0  0  0  0  0  0  0
    6.3301    0.4400    0.0000 C   0  0  0  0  0  0  0  0  0  0  0  0
    8.9282    1.9400    0.0000 C   0  0  0  0  0  0  0  0  0  0  0  0
    9.7942    1.4400    0.0000 C   0  0  0  0  0  0  0  0  0  0  0  0
    5.4641   -0.0600    0.0000 C   0  0  0  0  0  0  0  0  0  0  0  0
    4.5981    0.4400    0.0000 C   0  0  0  0  0  0  0  0  0  0  0  0
    5.4641   -1.0600    0.0000 C   0  0  0  0  0  0  0  0  0  0  0  0
   11.5263    1.4400    0.0000 C   0  0  0  0  0  0  0  0  0  0  0  0
   10.6603    2.9400    0.0000 C   0  0  0  0  0  0  0  0  0  0  0  0
   12.3923    1.9400    0.0000 C   0  0  0  0  0  0  0  0  0  0  0  0
    6.3301   -1.5600    0.0000 C   0  0  0  0  0  0  0  0  0  0  0  0
    3.7320   -0.0600    0.0000 C   0  0  0  0  0  0  0  0  0  0  0  0
    4.5981   -1.5600    0.0000 C   0  0  0  0  0  0  0  0  0  0  0  0
    4.5981    1.4400    0.0000 C   0  0  0  0  0  0  0  0  0  0  0  0
   12.3923    2.9400    0.0000 C   0  0  0  0  0  0  0  0  0  0  0  0
    6.3301   -2.5600    0.0000 C   0  0  0  0  0  0  0  0  0  0  0  0
    2.8660    0.4400    0.0000 C   0  0  0  0  0  0  0  0  0  0  0  0
    4.5981   -2.5600    0.0000 C   0  0  0  0  0  0  0  0  0  0  0  0
    3.7320    1.9400    0.0000 C   0  0  0  0  0  0  0  0  0  0  0  0
   13.2862    1.4053    0.0000 C   0  0  0  0  0  0  0  0  0  0  0  0
   13.2862    3.4747    0.0000 C   0  0  0  0  0  0  0  0  0  0  0  0
    2.8660    1.4400    0.0000 C   0  0  0  0  0  0  0  0  0  0  0  0
    5.4641   -3.0600    0.0000 C   0  0  0  0  0  0  0  0  0  0  0  0
   14.1923    1.9192    0.0000 C   0  0  0  0  0  0  0  0  0  0  0  0
   14.1923    2.9608    0.0000 C   0  0  0  0  0  0  0  0  0  0  0  0
    7.5947    2.4150    0.0000 H   0  0  0  0  0  0  0  0  0  0  0  0
    6.7976    2.4150    0.0000 H   0  0  0  0  0  0  0  0  0  0  0  0
    8.2742   -0.1426    0.0000 H   0  0  0  0  0  0  0  0  0  0  0  0
    8.6728    0.5477    0.0000 H   0  0  0  0  0  0  0  0  0  0  0  0
    6.1181    2.0226    0.0000 H   0  0  0  0  0  0  0  0  0  0  0  0
    5.7196    1.3323    0.0000 H   0  0  0  0  0  0  0  0  0  0  0  0
    6.7976   -0.5349    0.0000 H   0  0  0  0  0  0  0  0  0  0  0  0
    7.5947   -0.5349    0.0000 H   0  0  0  0  0  0  0  0  0  0  0  0
    9.3267    2.4150    0.0000 H   0  0  0  0  0  0  0  0  0  0  0  0
    8.5297    2.4150    0.0000 H   0  0  0  0  0  0  0  0  0  0  0  0
    9.3957    0.9651    0.0000 H   0  0  0  0  0  0  0  0  0  0  0  0
   10.1928    0.9651    0.0000 H   0  0  0  0  0  0  0  0  0  0  0  0
    6.8671   -1.2500    0.0000 H   0  0  0  0  0  0  0  0  0  0  0  0
    3.7320   -0.6800    0.0000 H   0  0  0  0  0  0  0  0  0  0  0  0
    4.0611   -1.2500    0.0000 H   0  0  0  0  0  0  0  0  0  0  0  0
    5.1350    1.7500    0.0000 H   0  0  0  0  0  0  0  0  0  0  0  0
   11.5263    4.0600    0.0000 H   0  0  0  0  0  0  0  0  0  0  0  0
    6.8671   -2.8700    0.0000 H   0  0  0  0  0  0  0  0  0  0  0  0
    2.3291    0.1300    0.0000 H   0  0  0  0  0  0  0  0  0  0  0  0
    4.0611   -2.8700    0.0000 H   0  0  0  0  0  0  0  0  0  0  0  0
    3.7320    2.5600    0.0000 H   0  0  0  0  0  0  0  0  0  0  0  0
   13.2791    0.7854    0.0000 H   0  0  0  0  0  0  0  0  0  0  0  0
   13.2791    4.0946    0.0000 H   0  0  0  0  0  0  0  0  0  0  0  0
   14.7281    1.6071    0.0000 H   0  0  0  0  0  0  0  0  0  0  0  0
   14.7281    3.2729    0.0000 H   0  0  0  0  0  0  0  0  0  0  0  0
  1 19  2  0  0  0  0
  2 33  1  0  0  0  0
  3 32  1  0  0  0  0
  4 18  2  0  0  0  0
  5  8  1  0  0  0  0
  5  9  1  0  0  0  0
  5 13  1  0  0  0  0
  6 14  1  0  0  0  0
  6 18  1  0  0  0  0
  6 19  1  0  0  0  0
  7 19  1  0  0  0  0
  7 25  1  0  0  0  0
  7 52  1  0  0  0  0
  8 11  1  0  0  0  0
  8 36  1  0  0  0  0
  8 37  1  0  0  0  0
  9 10  1  0  0  0  0
  9 38  1  0  0  0  0
  9 39  1  0  0  0  0
 10 12  1  0  0  0  0
 10 42  1  0  0  0  0
 10 43  1  0  0  0  0
 11 12  1  0  0  0  0
 11 40  1  0  0  0  0
 11 41  1  0  0  0  0
 12 15  2  0  0  0  0
 13 14  1  0  0  0  0
 13 44  1  0  0  0  0
 13 45  1  0  0  0  0
 14 46  1  0  0  0  0
 14 47  1  0  0  0  0
 15 16  1  0  0  0  0
 15 17  1  0  0  0  0
 16 22  2  0  0  0  0
 16 24  1  0  0  0  0
 17 21  2  0  0  0  0
 17 23  1  0  0  0  0
 18 20  1  0  0  0  0
 20 25  1  0  0  0  0
 20 30  2  0  0  0  0
 21 26  1  0  0  0  0
 21 48  1  0  0  0  0
 22 27  1  0  0  0  0
 22 49  1  0  0  0  0
 23 28  2  0  0  0  0
 23 50  1  0  0  0  0
 24 29  2  0  0  0  0
 24 51  1  0  0  0  0
 25 31  2  0  0  0  0
 26 33  2  0  0  0  0
 26 53  1  0  0  0  0
 27 32  2  0  0  0  0
 27 54  1  0  0  0  0
 28 33  1  0  0  0  0
 28 55  1  0  0  0  0
 29 32  1  0  0  0  0
 29 56  1  0  0  0  0
 30 34  1  0  0  0  0
 30 57  1  0  0  0  0
 31 35  1  0  0  0  0
 31 58  1  0  0  0  0
 34 35  2  0  0  0  0
 34 59  1  0  0  0  0
 35 60  1  0  0  0  0
M  END
> <PUBCHEM_COMPOUND_CID>
657356

> <PUBCHEM_COMPOUND_CANONICALIZED>
1

> <PUBCHEM_CACTVS_COMPLEXITY>
770

> <PUBCHEM_CACTVS_HBOND_ACCEPTOR>
5

> <PUBCHEM_CACTVS_HBOND_DONOR>
1

> <PUBCHEM_CACTVS_ROTATABLE_BOND>
5

> <PUBCHEM_CACTVS_SUBSKEYS>
AAADceB7IYBAAAAAAAAAAAAAAAAAAAAAAAA8eMECAAAAAACxUAAAHwQQAAAADAjBmAwxwIPAAACMAiVSUACCAAAlAgkIiAEIZMiIYDrA1ZGUIYholwLIyecYiMCOAAAAAAACAAAAAAAAAAQAAAAAAAAAAA==

> <PUBCHEM_IUPAC_OPENEYE_NAME>
3-[2-[4-[bis(4-fluorophenyl)methylene]-1-piperidyl]ethyl]-2-thioxo-1H-quinazolin-4-one

> <PUBCHEM_IUPAC_CAS_NAME>
3-[2-[4-[bis(4-fluorophenyl)methylidene]-1-piperidinyl]ethyl]-2-sulfanylidene-1H-quinazolin-4-one

> <PUBCHEM_IUPAC_NAME>
3-[2-[4-[bis(4-fluorophenyl)methylidene]piperidin-1-yl]ethyl]-2-sulfanylidene-1H-quinazolin-4-one

> <PUBCHEM_IUPAC_SYSTEMATIC_NAME>
3-[2-[4-[bis(4-fluorophenyl)methylidene]piperidin-1-yl]ethyl]-2-sulfanylidene-1H-quinazolin-4-one

> <PUBCHEM_IUPAC_TRADITIONAL_NAME>
3-[2-[4-[bis(4-fluorophenyl)methylene]piperidino]ethyl]-2-thioxo-1H-quinazolin-4-one

> <PUBCHEM_IUPAC_INCHI>
InChI=1S/C28H25F2N3OS/c29-22-9-5-19(6-10-22)26(20-7-11-23(30)12-8-20)21-13-15-32(16-14-21)17-18-33-27(34)24-3-1-2-4-25(24)31-28(33)35/h1-12H,13-18H2,(H,31,35)

> <PUBCHEM_IUPAC_INCHIKEY>
ZCNBZFRECRPCKU-UHFFFAOYSA-N

> <PUBCHEM_XLOGP3_AA>
5.6

> <PUBCHEM_EXACT_MASS>
489.169

> <PUBCHEM_MOLECULAR_FORMULA>
C28H25F2N3OS

> <PUBCHEM_MOLECULAR_WEIGHT>
489.585

> <PUBCHEM_OPENEYE_CAN_SMILES>
C1CN(CCC1=C(C2=CC=C(C=C2)F)C3=CC=C(C=C3)F)CCN4C(=O)C5=CC=CC=C5NC4=S

> <PUBCHEM_OPENEYE_ISO_SMILES>
C1CN(CCC1=C(C2=CC=C(C=C2)F)C3=CC=C(C=C3)F)CCN4C(=O)C5=CC=CC=C5NC4=S

> <PUBCHEM_CACTVS_TPSA>
67.7

> <PUBCHEM_MONOISOTOPIC_WEIGHT>
489.169

> <PUBCHEM_TOTAL_CHARGE>
0

> <PUBCHEM_HEAVY_ATOM_COUNT>
35

> <PUBCHEM_ATOM_DEF_STEREO_COUNT>
0

> <PUBCHEM_ATOM_UDEF_STEREO_COUNT>
0

> <PUBCHEM_BOND_DEF_STEREO_COUNT>
0

> <PUBCHEM_BOND_UDEF_STEREO_COUNT>
0

> <PUBCHEM_ISOTOPIC_ATOM_COUNT>
0

> <PUBCHEM_COMPONENT_COUNT>
1

> <PUBCHEM_CACTVS_TAUTO_COUNT>
5

> <PUBCHEM_COORDINATE_TYPE>
1
5
255

> <PUBCHEM_BONDANNOTATIONS>
16  22  8
16  24  8
17  21  8
17  23  8
18  20  8
20  25  8
20  30  8
21  26  8
22  27  8
23  28  8
24  29  8
25  31  8
26  33  8
27  32  8
28  33  8
29  32  8
30  34  8
31  35  8
34  35  8
6  18  8
6  19  8
7  19  8
7  25  8

$$$$
3385203
  -OEChem-11021605012D

 28 31  0     0  0  0  0  0  0999 V2000
    5.0274    1.1005    0.0000 O   0  0  0  0  0  0  0  0  0  0  0  0
    4.8370   -1.3830    0.0000 N   0  0  0  0  0  0  0  0  0  0  0  0
    5.8311   -1.3821    0.0000 N   0  0  0  0  0  0  0  0  0  0  0  0
    4.5274   -0.4384    0.0000 C   0  0  0  0  0  0  0  0  0  0  0  0
    5.3364    0.1494    0.0000 C   0  0  0  0  0  0  0  0  0  0  0  0
    3.7183    0.1494    0.0000 C   0  0  0  0  0  0  0  0  0  0  0  0
    6.1391   -0.4370    0.0000 C   0  0  0  0  0  0  0  0  0  0  0  0
    4.0274    1.1005    0.0000 C   0  0  0  0  0  0  0  0  0  0  0  0
    7.0907   -0.1296    0.0000 C   0  0  0  0  0  0  0  0  0  0  0  0
    2.7029   -0.0828    0.0000 C   0  0  0  0  0  0  0  0  0  0  0  0
    3.3424    1.8852    0.0000 C   0  0  0  0  0  0  0  0  0  0  0  0
    2.0000    0.6859    0.0000 C   0  0  0  0  0  0  0  0  0  0  0  0
    2.3219    1.6765    0.0000 C   0  0  0  0  0  0  0  0  0  0  0  0
    7.8327   -0.8000    0.0000 C   0  0  0  0  0  0  0  0  0  0  0  0
    7.3003    0.8482    0.0000 C   0  0  0  0  0  0  0  0  0  0  0  0
    8.7842   -0.4926    0.0000 C   0  0  0  0  0  0  0  0  0  0  0  0
    8.2519    1.1556    0.0000 C   0  0  0  0  0  0  0  0  0  0  0  0
    8.9938    0.4851    0.0000 C   0  0  0  0  0  0  0  0  0  0  0  0
    4.4734   -1.8852    0.0000 H   0  0  0  0  0  0  0  0  0  0  0  0
    2.5182   -0.6747    0.0000 H   0  0  0  0  0  0  0  0  0  0  0  0
    3.5408    2.4726    0.0000 H   0  0  0  0  0  0  0  0  0  0  0  0
    1.3940    0.5546    0.0000 H   0  0  0  0  0  0  0  0  0  0  0  0
    1.9088    2.1388    0.0000 H   0  0  0  0  0  0  0  0  0  0  0  0
    7.7027   -1.4062    0.0000 H   0  0  0  0  0  0  0  0  0  0  0  0
    6.8402    1.2638    0.0000 H   0  0  0  0  0  0  0  0  0  0  0  0
    9.2443   -0.9083    0.0000 H   0  0  0  0  0  0  0  0  0  0  0  0
    8.3818    1.7618    0.0000 H   0  0  0  0  0  0  0  0  0  0  0  0
    9.5838    0.6757    0.0000 H   0  0  0  0  0  0  0  0  0  0  0  0
  1  5  1  0  0  0  0
  1  8  1  0  0  0  0
  2  3  1  0  0  0  0
  2  4  1  0  0  0  0
  2 19  1  0  0  0  0
  3  7  2  0  0  0  0
  4  5  2  0  0  0  0
  4  6  1  0  0  0  0
  5  7  1  0  0  0  0
  6  8  1  0  0  0  0
  6 10  2  0  0  0  0
  7  9  1  0  0  0  0
  8 11  2  0  0  0  0
  9 14  2  0  0  0  0
  9 15  1  0  0  0  0
 10 12  1  0  0  0  0
 10 20  1  0  0  0  0
 11 13  1  0  0  0  0
 11 21  1  0  0  0  0
 12 13  2  0  0  0  0
 12 22  1  0  0  0  0
 13 23  1  0  0  0  0
 14 16  1  0  0  0  0
 14 24  1  0  0  0  0
 15 17  2  0  0  0  0
 15 25  1  0  0  0  0
 16 18  2  0  0  0  0
 16 26  1  0  0  0  0
 17 18  1  0  0  0  0
 17 27  1  0  0  0  0
 18 28  1  0  0  0  0
M  END
> <PUBCHEM_COMPOUND_CID>
3385203

> <PUBCHEM_COMPOUND_CANONICALIZED>
1

> <PUBCHEM_CACTVS_COMPLEXITY>
303

> <PUBCHEM_CACTVS_HBOND_ACCEPTOR>
2

> <PUBCHEM_CACTVS_HBOND_DONOR>
1

> <PUBCHEM_CACTVS_ROTATABLE_BOND>
1

> <PUBCHEM_CACTVS_SUBSKEYS>
AAADccBzIAAAAAAAAAAAAAAAAAAAAWJAAAAwYAAAAAAWAEgB/gAAHgAYAAAADAyBngAwxvBjBECqA6RyQASSDAAmYAAYuSGnTNgOJrqE9duDvaDmyBkI6ceY2eGeAAAAAAAIAAAAAAAAABAAAAAAAAAAAA==

> <PUBCHEM_IUPAC_OPENEYE_NAME>
3-phenyl-1H-benzofuro[3,2-c]pyrazole

> <PUBCHEM_IUPAC_CAS_NAME>
3-phenyl-1H-benzofuro[3,2-c]pyrazole

> <PUBCHEM_IUPAC_NAME>
3-phenyl-1H-[1]benzofuro[3,2-c]pyrazole

> <PUBCHEM_IUPAC_SYSTEMATIC_NAME>
3-phenyl-1H-[1]benzofuro[3,2-c]pyrazole

> <PUBCHEM_IUPAC_TRADITIONAL_NAME>
3-phenyl-1H-benzofuro[3,2-c]pyrazole

> <PUBCHEM_IUPAC_INCHI>
InChI=1S/C15H10N2O/c1-2-6-10(7-3-1)13-15-14(17-16-13)11-8-4-5-9-12(11)18-15/h1-9H,(H,16,17)

> <PUBCHEM_IUPAC_INCHIKEY>
DZQLVVLATXPWBK-UHFFFAOYSA-N

> <PUBCHEM_XLOGP3_AA>
3.7

> <PUBCHEM_EXACT_MASS>
234.079

> <PUBCHEM_MOLECULAR_FORMULA>
C15H10N2O

> <PUBCHEM_MOLECULAR_WEIGHT>
234.258

> <PUBCHEM_OPENEYE_CAN_SMILES>
C1=CC=C(C=C1)C2=NNC3=C2OC4=CC=CC=C43

> <PUBCHEM_OPENEYE_ISO_SMILES>
C1=CC=C(C=C1)C2=NNC3=C2OC4=CC=CC=C43

> <PUBCHEM_CACTVS_TPSA>
41.8

> <PUBCHEM_MONOISOTOPIC_WEIGHT>
234.079

> <PUBCHEM_TOTAL_CHARGE>
0

> <PUBCHEM_HEAVY_ATOM_COUNT>
18

> <PUBCHEM_ATOM_DEF_STEREO_COUNT>
0

> <PUBCHEM_ATOM_UDEF_STEREO_COUNT>
0

> <PUBCHEM_BOND_DEF_STEREO_COUNT>
0

> <PUBCHEM_BOND_UDEF_STEREO_COUNT>
0

> <PUBCHEM_ISOTOPIC_ATOM_COUNT>
0

> <PUBCHEM_COMPONENT_COUNT>
1

> <PUBCHEM_CACTVS_TAUTO_COUNT>
2

> <PUBCHEM_COORDINATE_TYPE>
1
5
255

> <PUBCHEM_BONDANNOTATIONS>
1  5  8
1  8  8
10  12  8
11  13  8
12  13  8
14  16  8
15  17  8
16  18  8
17  18  8
2  3  8
2  4  8
3  7  8
4  5  8
4  6  8
5  7  8
6  10  8
6  8  8
8  11  8
9  14  8
9  15  8

$$$$
5339183
  -OEChem-11021605012D

 33 34  0     0  0  0  0  0  0999 V2000
    3.7891   -0.4655    0.0000 O   0  0  0  0  0  0  0  0  0  0  0  0
    2.8660   -5.0533    0.0000 O   0  5  0  0  0  0  0  0  0  0  0  0
    2.0000   -3.5533    0.0000 O   0  0  0  0  0  0  0  0  0  0  0  0
    7.7141    4.3488    0.0000 O   0  5  0  0  0  0  0  0  0  0  0  0
    6.1318    5.0533    0.0000 O   0  0  0  0  0  0  0  0  0  0  0  0
    2.8660   -4.0533    0.0000 N   0  3  0  0  0  0  0  0  0  0  0  0
    3.9170    2.2081    0.0000 N   0  0  0  0  0  0  0  0  0  0  0  0
    4.9116    2.3126    0.0000 N   0  0  0  0  0  0  0  0  0  0  0  0
    6.3128    3.3307    0.0000 N   0  0  0  0  0  0  0  0  0  0  0  0
    4.7305    4.0352    0.0000 N   0  0  0  0  0  0  0  0  0  0  0  0
    6.7195    4.2443    0.0000 N   0  3  0  0  0  0  0  0  0  0  0  0
    4.5981   -2.0533    0.0000 C   0  0  0  0  0  0  0  0  0  0  0  0
    4.5981   -1.0533    0.0000 C   0  0  0  0  0  0  0  0  0  0  0  0
    3.7320   -2.5533    0.0000 C   0  0  0  0  0  0  0  0  0  0  0  0
    5.4641   -2.5533    0.0000 C   0  0  0  0  0  0  0  0  0  0  0  0
    5.4071   -0.4655    0.0000 C   0  0  0  0  0  0  0  0  0  0  0  0
    3.7320   -3.5533    0.0000 C   0  0  0  0  0  0  0  0  0  0  0  0
    4.0981    0.4856    0.0000 C   0  0  0  0  0  0  0  0  0  0  0  0
    5.0981    0.4856    0.0000 C   0  0  0  0  0  0  0  0  0  0  0  0
    5.4641   -3.5533    0.0000 C   0  0  0  0  0  0  0  0  0  0  0  0
    4.5981   -4.0533    0.0000 C   0  0  0  0  0  0  0  0  0  0  0  0
    3.5103    1.2946    0.0000 C   0  0  0  0  0  0  0  0  0  0  0  0
    5.3183    3.2262    0.0000 C   0  0  0  0  0  0  0  0  0  0  0  0
    3.1951   -2.2433    0.0000 H   0  0  0  0  0  0  0  0  0  0  0  0
    6.0010   -2.2433    0.0000 H   0  0  0  0  0  0  0  0  0  0  0  0
    5.9967   -0.6571    0.0000 H   0  0  0  0  0  0  0  0  0  0  0  0
    5.4625    0.9871    0.0000 H   0  0  0  0  0  0  0  0  0  0  0  0
    6.0010   -3.8633    0.0000 H   0  0  0  0  0  0  0  0  0  0  0  0
    4.5981   -4.6733    0.0000 H   0  0  0  0  0  0  0  0  0  0  0  0
    2.8937    1.2298    0.0000 H   0  0  0  0  0  0  0  0  0  0  0  0
    6.6772    2.8291    0.0000 H   0  0  0  0  0  0  0  0  0  0  0  0
    4.9827    4.6016    0.0000 H   0  0  0  0  0  0  0  0  0  0  0  0
    4.1139    3.9704    0.0000 H   0  0  0  0  0  0  0  0  0  0  0  0
  1 13  1  0  0  0  0
  1 18  1  0  0  0  0
  2  6  1  0  0  0  0
  3  6  2  0  0  0  0
  4 11  1  0  0  0  0
  5 11  2  0  0  0  0
  6 17  1  0  0  0  0
  7  8  1  0  0  0  0
  7 22  2  0  0  0  0
  8 23  2  0  0  0  0
  9 11  1  0  0  0  0
  9 23  1  0  0  0  0
  9 31  1  0  0  0  0
 10 23  1  0  0  0  0
 10 32  1  0  0  0  0
 10 33  1  0  0  0  0
 12 13  1  0  0  0  0
 12 14  2  0  0  0  0
 12 15  1  0  0  0  0
 13 16  2  0  0  0  0
 14 17  1  0  0  0  0
 14 24  1  0  0  0  0
 15 20  2  0  0  0  0
 15 25  1  0  0  0  0
 16 19  1  0  0  0  0
 16 26  1  0  0  0  0
 17 21  2  0  0  0  0
 18 19  2  0  0  0  0
 18 22  1  0  0  0  0
 19 27  1  0  0  0  0
 20 21  1  0  0  0  0
 20 28  1  0  0  0  0
 21 29  1  0  0  0  0
 22 30  1  0  0  0  0
M  CHG  4   2  -1   4  -1   6   1  11   1
M  END
> <PUBCHEM_COMPOUND_CID>
5339183

> <PUBCHEM_COMPOUND_CANONICALIZED>
1

> <PUBCHEM_CACTVS_COMPLEXITY>
499

> <PUBCHEM_CACTVS_HBOND_ACCEPTOR>
7

> <PUBCHEM_CACTVS_HBOND_DONOR>
2

> <PUBCHEM_CACTVS_ROTATABLE_BOND>
4

> <PUBCHEM_CACTVS_SUBSKEYS>
AAADccBzuAAAAAAAAAAAAAAAAAAAASAAAAAwAAAAAAAAAAABwAAAHgAcAAAADAzBmAQxxIByRECpArRzYwSCCAAkIgAsiAEmbNoMJrKEtZuCOSD0wBEI6Ye8yPCOAAAAQAAAAAAAAACAAAAAAAAAAAAAAA==

> <PUBCHEM_IUPAC_OPENEYE_NAME>
1-nitro-2-[(Z)-[5-(3-nitrophenyl)-2-furyl]methyleneamino]guanidine

> <PUBCHEM_IUPAC_CAS_NAME>
1-nitro-2-[(Z)-[5-(3-nitrophenyl)-2-furanyl]methylideneamino]guanidine

> <PUBCHEM_IUPAC_NAME>
1-nitro-2-[(Z)-[5-(3-nitrophenyl)furan-2-yl]methylideneamino]guanidine

> <PUBCHEM_IUPAC_SYSTEMATIC_NAME>
1-nitro-2-[(Z)-[5-(3-nitrophenyl)furan-2-yl]methylideneamino]guanidine

> <PUBCHEM_IUPAC_TRADITIONAL_NAME>
1-nitro-2-[(Z)-[5-(3-nitrophenyl)-2-furyl]methyleneamino]guanidine

> <PUBCHEM_IUPAC_INCHI>
InChI=1S/C12H10N6O5/c13-12(16-18(21)22)15-14-7-10-4-5-11(23-10)8-2-1-3-9(6-8)17(19)20/h1-7H,(H3,13,15,16)/b14-7-

> <PUBCHEM_IUPAC_INCHIKEY>
RODAAYVFYDKHGT-AUWJEWJLSA-N

> <PUBCHEM_XLOGP3_AA>
1.9

> <PUBCHEM_EXACT_MASS>
318.071

> <PUBCHEM_MOLECULAR_FORMULA>
C12H10N6O5

> <PUBCHEM_MOLECULAR_WEIGHT>
318.249

> <PUBCHEM_OPENEYE_CAN_SMILES>
C1=CC(=CC(=C1)[N+](=O)[O-])C2=CC=C(O2)C=NN=C(N)N[N+](=O)[O-]

> <PUBCHEM_OPENEYE_ISO_SMILES>
C1=CC(=CC(=C1)[N+](=O)[O-])C2=CC=C(O2)/C=N\N=C(/N)\N[N+](=O)[O-]

> <PUBCHEM_CACTVS_TPSA>
168

> <PUBCHEM_MONOISOTOPIC_WEIGHT>
318.071

> <PUBCHEM_TOTAL_CHARGE>
0

> <PUBCHEM_HEAVY_ATOM_COUNT>
23

> <PUBCHEM_ATOM_DEF_STEREO_COUNT>
0

> <PUBCHEM_ATOM_UDEF_STEREO_COUNT>
0

> <PUBCHEM_BOND_DEF_STEREO_COUNT>
2

> <PUBCHEM_BOND_UDEF_STEREO_COUNT>
0

> <PUBCHEM_ISOTOPIC_ATOM_COUNT>
0

> <PUBCHEM_COMPONENT_COUNT>
1

> <PUBCHEM_CACTVS_TAUTO_COUNT>
3

> <PUBCHEM_COORDINATE_TYPE>
1
5
255

> <PUBCHEM_BONDANNOTATIONS>
1  13  8
1  18  8
12  14  8
12  15  8
13  16  8
14  17  8
15  20  8
16  19  8
17  21  8
18  19  8
20  21  8

$$$$
16760619
  -OEChem-11021605012D

 29 31  0     0  0  0  0  0  0999 V2000
    2.0000   -0.3373    0.0000 Cl  0  0  0  0  0  0  0  0  0  0  0  0
    8.4333    2.7314    0.0000 Cl  0  0  0  0  0  0  0  0  0  0  0  0
    9.1477   -0.6583    0.0000 Cl  0  0  0  0  0  0  0  0  0  0  0  0
    7.1279   -1.3373    0.0000 O   0  0  0  0  0  0  0  0  0  0  0  0
    9.7690    1.2428    0.0000 O   0  0  0  0  0  0  0  0  0  0  0  0
    5.5443   -2.1421    0.0000 N   0  0  0  0  0  0  0  0  0  0  0  0
    4.5981   -0.8373    0.0000 C   0  0  0  0  0  0  0  0  0  0  0  0
    5.5443   -0.5326    0.0000 C   0  0  0  0  0  0  0  0  0  0  0  0
    4.5981   -1.8373    0.0000 C   0  0  0  0  0  0  0  0  0  0  0  0
    6.1279   -1.3373    0.0000 C   0  0  0  0  0  0  0  0  0  0  0  0
    5.8550    0.4179    0.0000 C   0  0  0  0  0  0  0  0  0  0  0  0
    3.7320   -0.3373    0.0000 C   0  0  0  0  0  0  0  0  0  0  0  0
    6.8335    0.6241    0.0000 C   0  0  0  0  0  0  0  0  0  0  0  0
    3.7320   -2.3373    0.0000 C   0  0  0  0  0  0  0  0  0  0  0  0
    2.8660   -0.8373    0.0000 C   0  0  0  0  0  0  0  0  0  0  0  0
    2.8660   -1.8373    0.0000 C   0  0  0  0  0  0  0  0  0  0  0  0
    7.5013   -0.1202    0.0000 C   0  0  0  0  0  0  0  0  0  0  0  0
    7.1441    1.5747    0.0000 C   0  0  0  0  0  0  0  0  0  0  0  0
    8.1226    1.7809    0.0000 C   0  0  0  0  0  0  0  0  0  0  0  0
    8.4798    0.0861    0.0000 C   0  0  0  0  0  0  0  0  0  0  0  0
    8.7905    1.0366    0.0000 C   0  0  0  0  0  0  0  0  0  0  0  0
    5.7369   -2.7314    0.0000 H   0  0  0  0  0  0  0  0  0  0  0  0
    5.4409    0.8794    0.0000 H   0  0  0  0  0  0  0  0  0  0  0  0
    3.7320    0.2827    0.0000 H   0  0  0  0  0  0  0  0  0  0  0  0
    3.7320   -2.9573    0.0000 H   0  0  0  0  0  0  0  0  0  0  0  0
    2.3291   -2.1473    0.0000 H   0  0  0  0  0  0  0  0  0  0  0  0
    7.3087   -0.7095    0.0000 H   0  0  0  0  0  0  0  0  0  0  0  0
    6.7301    2.0361    0.0000 H   0  0  0  0  0  0  0  0  0  0  0  0
    9.9616    1.8321    0.0000 H   0  0  0  0  0  0  0  0  0  0  0  0
  1 15  1  0  0  0  0
  2 19  1  0  0  0  0
  3 20  1  0  0  0  0
  4 10  2  0  0  0  0
  5 21  1  0  0  0  0
  5 29  1  0  0  0  0
  6  9  1  0  0  0  0
  6 10  1  0  0  0  0
  6 22  1  0  0  0  0
  7  8  1  0  0  0  0
  7  9  2  0  0  0  0
  7 12  1  0  0  0  0
  8 10  1  0  0  0  0
  8 11  2  0  0  0  0
  9 14  1  0  0  0  0
 11 13  1  0  0  0  0
 11 23  1  0  0  0  0
 12 15  2  0  0  0  0
 12 24  1  0  0  0  0
 13 17  2  0  0  0  0
 13 18  1  0  0  0  0
 14 16  2  0  0  0  0
 14 25  1  0  0  0  0
 15 16  1  0  0  0  0
 16 26  1  0  0  0  0
 17 20  1  0  0  0  0
 17 27  1  0  0  0  0
 18 19  2  0  0  0  0
 18 28  1  0  0  0  0
 19 21  1  0  0  0  0
 20 21  2  0  0  0  0
M  END
> <PUBCHEM_COMPOUND_CID>
16760619

> <PUBCHEM_COMPOUND_CANONICALIZED>
1

> <PUBCHEM_CACTVS_COMPLEXITY>
444

> <PUBCHEM_CACTVS_HBOND_ACCEPTOR>
2

> <PUBCHEM_CACTVS_HBOND_DONOR>
2

> <PUBCHEM_CACTVS_ROTATABLE_BOND>
1

> <PUBCHEM_CACTVS_SUBSKEYS>
AAADccByMAAGAAAAAAAAAAAAAAAAAWAAAAAwYAAAAAAAAFgBQAAAHgIQCAAADA6BmCAwxoLAAgCIAiVSUACCAAAhJ0AIiAEEb8gIJjLDl5OEcAhk1BHI2YecyICOIABAIACCCABAAIBAAQQQAAAAAAAAAA==

> <PUBCHEM_IUPAC_OPENEYE_NAME>
(3Z)-5-chloro-3-[(3,5-dichloro-4-hydroxy-phenyl)methylene]indolin-2-one

> <PUBCHEM_IUPAC_CAS_NAME>
(3Z)-5-chloro-3-[(3,5-dichloro-4-hydroxyphenyl)methylidene]-1H-indol-2-one

> <PUBCHEM_IUPAC_NAME>
(3Z)-5-chloro-3-[(3,5-dichloro-4-hydroxyphenyl)methylidene]-1H-indol-2-one

> <PUBCHEM_IUPAC_SYSTEMATIC_NAME>
(3Z)-3-[[3,5-bis(chloranyl)-4-oxidanyl-phenyl]methylidene]-5-chloranyl-1H-indol-2-one

> <PUBCHEM_IUPAC_TRADITIONAL_NAME>
(3Z)-5-chloro-3-(3,5-dichloro-4-hydroxy-benzylidene)oxindole

> <PUBCHEM_IUPAC_INCHI>
InChI=1S/C15H8Cl3NO2/c16-8-1-2-13-9(6-8)10(15(21)19-13)3-7-4-11(17)14(20)12(18)5-7/h1-6,20H,(H,19,21)/b10-3-

> <PUBCHEM_IUPAC_INCHIKEY>
ZJFMARHFPUZEKI-KMKOMSMNSA-N

> <PUBCHEM_XLOGP3_AA>
4.4

> <PUBCHEM_EXACT_MASS>
338.962

> <PUBCHEM_MOLECULAR_FORMULA>
C15H8Cl3NO2

> <PUBCHEM_MOLECULAR_WEIGHT>
340.584

> <PUBCHEM_OPENEYE_CAN_SMILES>
C1=CC2=C(C=C1Cl)C(=CC3=CC(=C(C(=C3)Cl)O)Cl)C(=O)N2

> <PUBCHEM_OPENEYE_ISO_SMILES>
C1=CC2=C(C=C1Cl)/C(=C/C3=CC(=C(C(=C3)Cl)O)Cl)/C(=O)N2

> <PUBCHEM_CACTVS_TPSA>
49.3

> <PUBCHEM_MONOISOTOPIC_WEIGHT>
338.962

> <PUBCHEM_TOTAL_CHARGE>
0

> <PUBCHEM_HEAVY_ATOM_COUNT>
21

> <PUBCHEM_ATOM_DEF_STEREO_COUNT>
0

> <PUBCHEM_ATOM_UDEF_STEREO_COUNT>
0

> <PUBCHEM_BOND_DEF_STEREO_COUNT>
1

> <PUBCHEM_BOND_UDEF_STEREO_COUNT>
0

> <PUBCHEM_ISOTOPIC_ATOM_COUNT>
0

> <PUBCHEM_COMPONENT_COUNT>
1

> <PUBCHEM_CACTVS_TAUTO_COUNT>
11

> <PUBCHEM_COORDINATE_TYPE>
1
5
255

> <PUBCHEM_BONDANNOTATIONS>
12  15  8
13  17  8
13  18  8
14  16  8
15  16  8
17  20  8
18  19  8
19  21  8
20  21  8
7  12  8
7  9  8
9  14  8

$$$$
16760417
  -OEChem-11021605012D

 37 41  0     0  0  0  0  0  0999 V2000
    8.7198    0.3008    0.0000 O   0  0  0  0  0  0  0  0  0  0  0  0
    3.2892   -0.1152    0.0000 N   0  0  0  0  0  0  0  0  0  0  0  0
    3.7899    0.7435    0.0000 N   0  0  0  0  0  0  0  0  0  0  0  0
    5.7308   -1.9544    0.0000 N   0  0  0  0  0  0  0  0  0  0  0  0
    8.4091   -2.2592    0.0000 N   0  0  0  0  0  0  0  0  0  0  0  0
    8.9927   -1.4544    0.0000 N   0  0  0  0  0  0  0  0  0  0  0  0
    6.5968   -2.4544    0.0000 N   0  0  0  0  0  0  0  0  0  0  0  0
    4.8648   -0.4544    0.0000 C   0  0  0  0  0  0  0  0  0  0  0  0
    3.9570   -0.8595    0.0000 C   0  0  0  0  0  0  0  0  0  0  0  0
    4.7617    0.5343    0.0000 C   0  0  0  0  0  0  0  0  0  0  0  0
    5.7308   -0.9544    0.0000 C   0  0  0  0  0  0  0  0  0  0  0  0
    5.5060    1.2021    0.0000 C   0  0  0  0  0  0  0  0  0  0  0  0
    7.4629   -0.9544    0.0000 C   0  0  0  0  0  0  0  0  0  0  0  0
    6.5968   -0.4544    0.0000 C   0  0  0  0  0  0  0  0  0  0  0  0
    3.6464   -1.8101    0.0000 C   0  0  0  0  0  0  0  0  0  0  0  0
    7.4629   -1.9544    0.0000 C   0  0  0  0  0  0  0  0  0  0  0  0
    2.3107   -0.3215    0.0000 C   0  0  0  0  0  0  0  0  0  0  0  0
    2.6678   -2.0163    0.0000 C   0  0  0  0  0  0  0  0  0  0  0  0
    8.4091   -0.6497    0.0000 C   0  0  0  0  0  0  0  0  0  0  0  0
    2.0000   -1.2720    0.0000 C   0  0  0  0  0  0  0  0  0  0  0  0
    5.2998    2.1806    0.0000 C   0  0  0  0  0  0  0  0  0  0  0  0
    6.4566    0.8915    0.0000 C   0  0  0  0  0  0  0  0  0  0  0  0
    6.0441    2.8485    0.0000 C   0  0  0  0  0  0  0  0  0  0  0  0
    7.2009    1.5593    0.0000 C   0  0  0  0  0  0  0  0  0  0  0  0
    6.9946    2.5378    0.0000 C   0  0  0  0  0  0  0  0  0  0  0  0
    6.5968    0.1656    0.0000 H   0  0  0  0  0  0  0  0  0  0  0  0
    4.0604   -2.2715    0.0000 H   0  0  0  0  0  0  0  0  0  0  0  0
    1.8966    0.1400    0.0000 H   0  0  0  0  0  0  0  0  0  0  0  0
    2.4752   -2.6056    0.0000 H   0  0  0  0  0  0  0  0  0  0  0  0
    1.3933   -1.3998    0.0000 H   0  0  0  0  0  0  0  0  0  0  0  0
    4.7105    2.3732    0.0000 H   0  0  0  0  0  0  0  0  0  0  0  0
    6.5844    0.2848    0.0000 H   0  0  0  0  0  0  0  0  0  0  0  0
    8.6017   -2.8485    0.0000 H   0  0  0  0  0  0  0  0  0  0  0  0
    9.6127   -1.4544    0.0000 H   0  0  0  0  0  0  0  0  0  0  0  0
    5.9163    3.4552    0.0000 H   0  0  0  0  0  0  0  0  0  0  0  0
    7.7902    1.3667    0.0000 H   0  0  0  0  0  0  0  0  0  0  0  0
    7.4561    2.9519    0.0000 H   0  0  0  0  0  0  0  0  0  0  0  0
  1 19  2  0  0  0  0
  2  3  1  0  0  0  0
  2  9  1  0  0  0  0
  2 17  1  0  0  0  0
  3 10  2  0  0  0  0
  4  7  1  0  0  0  0
  4 11  2  0  0  0  0
  5  6  1  0  0  0  0
  5 16  1  0  0  0  0
  5 33  1  0  0  0  0
  6 19  1  0  0  0  0
  6 34  1  0  0  0  0
  7 16  2  0  0  0  0
  8  9  2  0  0  0  0
  8 10  1  0  0  0  0
  8 11  1  0  0  0  0
  9 15  1  0  0  0  0
 10 12  1  0  0  0  0
 11 14  1  0  0  0  0
 12 21  2  0  0  0  0
 12 22  1  0  0  0  0
 13 14  2  0  0  0  0
 13 16  1  0  0  0  0
 13 19  1  0  0  0  0
 14 26  1  0  0  0  0
 15 18  2  0  0  0  0
 15 27  1  0  0  0  0
 17 20  2  0  0  0  0
 17 28  1  0  0  0  0
 18 20  1  0  0  0  0
 18 29  1  0  0  0  0
 20 30  1  0  0  0  0
 21 23  1  0  0  0  0
 21 31  1  0  0  0  0
 22 24  2  0  0  0  0
 22 32  1  0  0  0  0
 23 25  2  0  0  0  0
 23 35  1  0  0  0  0
 24 25  1  0  0  0  0
 24 36  1  0  0  0  0
 25 37  1  0  0  0  0
M  END
> <PUBCHEM_COMPOUND_CID>
16760417

> <PUBCHEM_COMPOUND_CANONICALIZED>
1

> <PUBCHEM_CACTVS_COMPLEXITY>
510

> <PUBCHEM_CACTVS_HBOND_ACCEPTOR>
5

> <PUBCHEM_CACTVS_HBOND_DONOR>
2

> <PUBCHEM_CACTVS_ROTATABLE_BOND>
2

> <PUBCHEM_CACTVS_SUBSKEYS>
AAADccB7oAAAAAAAAAAAAAAAAAAAAWLAAAA8WIAAAAAAAFgB/AAAHgAYAAAADAjBngQ98LJqEACqAzd3dACShCI1giIe+CE4ZNgIIPrA1dGEpYhwiADIyccciMCOAAAAAAAAAAAAAAAAAAAAAAAAAAAAAA==

> <PUBCHEM_IUPAC_OPENEYE_NAME>
5-(2-phenylpyrazolo[1,5-a]pyridin-3-yl)-1,2-dihydropyrazolo[3,4-c]pyridazin-3-one

> <PUBCHEM_IUPAC_CAS_NAME>
5-(2-phenyl-3-pyrazolo[1,5-a]pyridinyl)-1,2-dihydropyrazolo[3,4-c]pyridazin-3-one

> <PUBCHEM_IUPAC_NAME>
5-(2-phenylpyrazolo[1,5-a]pyridin-3-yl)-1,2-dihydropyrazolo[3,4-c]pyridazin-3-one

> <PUBCHEM_IUPAC_SYSTEMATIC_NAME>
5-(2-phenylpyrazolo[1,5-a]pyridin-3-yl)-1,2-dihydropyrazolo[3,4-c]pyridazin-3-one

> <PUBCHEM_IUPAC_TRADITIONAL_NAME>
5-(2-phenylpyrazolo[1,5-a]pyridin-3-yl)-1,2-dihydropyrazolo[3,4-c]pyridazin-3-one

> <PUBCHEM_IUPAC_INCHI>
InChI=1S/C18H12N6O/c25-18-12-10-13(19-20-17(12)21-22-18)15-14-8-4-5-9-24(14)23-16(15)11-6-2-1-3-7-11/h1-10H,(H2,20,21,22,25)

> <PUBCHEM_IUPAC_INCHIKEY>
QMBDONCHHMIWFJ-UHFFFAOYSA-N

> <PUBCHEM_XLOGP3_AA>
1.9

> <PUBCHEM_EXACT_MASS>
328.107

> <PUBCHEM_MOLECULAR_FORMULA>
C18H12N6O

> <PUBCHEM_MOLECULAR_WEIGHT>
328.335

> <PUBCHEM_OPENEYE_CAN_SMILES>
C1=CC=C(C=C1)C2=NN3C=CC=CC3=C2C4=NN=C5C(=C4)C(=O)NN5

> <PUBCHEM_OPENEYE_ISO_SMILES>
C1=CC=C(C=C1)C2=NN3C=CC=CC3=C2C4=NN=C5C(=C4)C(=O)NN5

> <PUBCHEM_CACTVS_TPSA>
84.2

> <PUBCHEM_MONOISOTOPIC_WEIGHT>
328.107

> <PUBCHEM_TOTAL_CHARGE>
0

> <PUBCHEM_HEAVY_ATOM_COUNT>
25

> <PUBCHEM_ATOM_DEF_STEREO_COUNT>
0

> <PUBCHEM_ATOM_UDEF_STEREO_COUNT>
0

> <PUBCHEM_BOND_DEF_STEREO_COUNT>
0

> <PUBCHEM_BOND_UDEF_STEREO_COUNT>
0

> <PUBCHEM_ISOTOPIC_ATOM_COUNT>
0

> <PUBCHEM_COMPONENT_COUNT>
1

> <PUBCHEM_CACTVS_TAUTO_COUNT>
10

> <PUBCHEM_COORDINATE_TYPE>
1
5
255

> <PUBCHEM_BONDANNOTATIONS>
11  14  8
12  21  8
12  22  8
13  14  8
13  16  8
13  19  8
15  18  8
17  20  8
18  20  8
2  17  8
2  3  8
2  9  8
21  23  8
22  24  8
23  25  8
24  25  8
3  10  8
4  11  8
4  7  8
5  16  8
5  6  8
6  19  8
7  16  8
8  10  8
8  9  8
9  15  8

$$$$
3820
  -OEChem-11021605012D

 31 34  0     0  0  0  0  0  0999 V2000
    2.0000   -1.6049    0.0000 Br  0  0  0  0  0  0  0  0  0  0  0  0
    5.2364    2.5713    0.0000 O   0  0  0  0  0  0  0  0  0  0  0  0
    6.0343   -1.5050    0.0000 N   0  0  0  0  0  0  0  0  0  0  0  0
    6.6703    1.6703    0.0000 N   0  0  0  0  0  0  0  0  0  0  0  0
    5.2693   -0.0864    0.0000 C   0  0  0  0  0  0  0  0  0  0  0  0
    6.1703   -0.5203    0.0000 C   0  0  0  0  0  0  0  0  0  0  0  0
    4.5842   -0.8067    0.0000 C   0  0  0  0  0  0  0  0  0  0  0  0
    5.0468    0.8885    0.0000 C   0  0  0  0  0  0  0  0  0  0  0  0
    5.0561   -1.6817    0.0000 C   0  0  0  0  0  0  0  0  0  0  0  0
    7.0713   -0.0864    0.0000 C   0  0  0  0  0  0  0  0  0  0  0  0
    7.2938    0.8885    0.0000 C   0  0  0  0  0  0  0  0  0  0  0  0
    5.6703    1.6703    0.0000 C   0  0  0  0  0  0  0  0  0  0  0  0
    3.5498   -0.7607    0.0000 C   0  0  0  0  0  0  0  0  0  0  0  0
    4.5262   -2.5713    0.0000 C   0  0  0  0  0  0  0  0  0  0  0  0
    7.8238   -0.8066    0.0000 C   0  0  0  0  0  0  0  0  0  0  0  0
    8.2843    1.2108    0.0000 C   0  0  0  0  0  0  0  0  0  0  0  0
    2.9995   -1.6378    0.0000 C   0  0  0  0  0  0  0  0  0  0  0  0
    3.4909   -2.5492    0.0000 C   0  0  0  0  0  0  0  0  0  0  0  0
    8.8215   -0.5073    0.0000 C   0  0  0  0  0  0  0  0  0  0  0  0
    9.0533    0.5082    0.0000 C   0  0  0  0  0  0  0  0  0  0  0  0
    4.6603    1.3732    0.0000 H   0  0  0  0  0  0  0  0  0  0  0  0
    4.4882    0.6195    0.0000 H   0  0  0  0  0  0  0  0  0  0  0  0
    6.4817   -1.9343    0.0000 H   0  0  0  0  0  0  0  0  0  0  0  0
    3.2619   -0.2116    0.0000 H   0  0  0  0  0  0  0  0  0  0  0  0
    6.9393    2.2289    0.0000 H   0  0  0  0  0  0  0  0  0  0  0  0
    4.8267   -3.1136    0.0000 H   0  0  0  0  0  0  0  0  0  0  0  0
    7.6789   -1.4094    0.0000 H   0  0  0  0  0  0  0  0  0  0  0  0
    8.4153    1.8168    0.0000 H   0  0  0  0  0  0  0  0  0  0  0  0
    3.1675   -3.0782    0.0000 H   0  0  0  0  0  0  0  0  0  0  0  0
    9.2744   -0.9307    0.0000 H   0  0  0  0  0  0  0  0  0  0  0  0
    9.6451    0.6933    0.0000 H   0  0  0  0  0  0  0  0  0  0  0  0
  1 17  1  0  0  0  0
  2 12  2  0  0  0  0
  3  6  1  0  0  0  0
  3  9  1  0  0  0  0
  3 23  1  0  0  0  0
  4 11  1  0  0  0  0
  4 12  1  0  0  0  0
  4 25  1  0  0  0  0
  5  6  2  0  0  0  0
  5  7  1  0  0  0  0
  5  8  1  0  0  0  0
  6 10  1  0  0  0  0
  7  9  2  0  0  0  0
  7 13  1  0  0  0  0
  8 12  1  0  0  0  0
  8 21  1  0  0  0  0
  8 22  1  0  0  0  0
  9 14  1  0  0  0  0
 10 11  1  0  0  0  0
 10 15  2  0  0  0  0
 11 16  2  0  0  0  0
 13 17  2  0  0  0  0
 13 24  1  0  0  0  0
 14 18  2  0  0  0  0
 14 26  1  0  0  0  0
 15 19  1  0  0  0  0
 15 27  1  0  0  0  0
 16 20  1  0  0  0  0
 16 28  1  0  0  0  0
 17 18  1  0  0  0  0
 18 29  1  0  0  0  0
 19 20  2  0  0  0  0
 19 30  1  0  0  0  0
 20 31  1  0  0  0  0
M  END
> <PUBCHEM_COMPOUND_CID>
3820

> <PUBCHEM_COMPOUND_CANONICALIZED>
1

> <PUBCHEM_CACTVS_COMPLEXITY>
402

> <PUBCHEM_CACTVS_HBOND_ACCEPTOR>
1

> <PUBCHEM_CACTVS_HBOND_DONOR>
2

> <PUBCHEM_CACTVS_ROTATABLE_BOND>
0

> <PUBCHEM_CACTVS_SUBSKEYS>
AAADccB7IAAAEAAAAAAAAAAAAAAAAWAAAAAwYAAABYAAAFix9AAAHgBQAAABrAiBngAwwPLJkACoAyVyVACCgCAhAiQImSEwZLgIIPLA1ZGEIAhglADIyhccicCegAAgEAACAAAAAEAgAAQAAAAAAAAAAA==

> <PUBCHEM_IUPAC_OPENEYE_NAME>
9-bromo-7,12-dihydro-5H-indolo[3,2-d][1]benzazepin-6-one

> <PUBCHEM_IUPAC_CAS_NAME>
9-bromo-7,12-dihydro-5H-indolo[3,2-d][1]benzazepin-6-one

> <PUBCHEM_IUPAC_NAME>
9-bromo-7,12-dihydro-5H-indolo[3,2-d][1]benzazepin-6-one

> <PUBCHEM_IUPAC_SYSTEMATIC_NAME>
9-bromanyl-7,12-dihydro-5H-indolo[3,2-d][1]benzazepin-6-one

> <PUBCHEM_IUPAC_TRADITIONAL_NAME>
9-bromo-7,12-dihydro-5H-indolo[3,2-d][1]benzazepin-6-one

> <PUBCHEM_IUPAC_INCHI>
InChI=1S/C16H11BrN2O/c17-9-5-6-14-11(7-9)12-8-15(20)18-13-4-2-1-3-10(13)16(12)19-14/h1-7,19H,8H2,(H,18,20)

> <PUBCHEM_IUPAC_INCHIKEY>
QQUXFYAWXPMDOE-UHFFFAOYSA-N

> <PUBCHEM_XLOGP3_AA>
3.3

> <PUBCHEM_EXACT_MASS>
326.005

> <PUBCHEM_MOLECULAR_FORMULA>
C16H11BrN2O

> <PUBCHEM_MOLECULAR_WEIGHT>
327.181

> <PUBCHEM_OPENEYE_CAN_SMILES>
C1C2=C(C3=CC=CC=C3NC1=O)NC4=C2C=C(C=C4)Br

> <PUBCHEM_OPENEYE_ISO_SMILES>
C1C2=C(C3=CC=CC=C3NC1=O)NC4=C2C=C(C=C4)Br

> <PUBCHEM_CACTVS_TPSA>
44.9

> <PUBCHEM_MONOISOTOPIC_WEIGHT>
326.005

> <PUBCHEM_TOTAL_CHARGE>
0

> <PUBCHEM_HEAVY_ATOM_COUNT>
20

> <PUBCHEM_ATOM_DEF_STEREO_COUNT>
0

> <PUBCHEM_ATOM_UDEF_STEREO_COUNT>
0

> <PUBCHEM_BOND_DEF_STEREO_COUNT>
0

> <PUBCHEM_BOND_UDEF_STEREO_COUNT>
0

> <PUBCHEM_ISOTOPIC_ATOM_COUNT>
0

> <PUBCHEM_COMPONENT_COUNT>
1

> <PUBCHEM_CACTVS_TAUTO_COUNT>
3

> <PUBCHEM_COORDINATE_TYPE>
1
5
255

> <PUBCHEM_BONDANNOTATIONS>
10  11  8
10  15  8
11  16  8
13  17  8
14  18  8
15  19  8
16  20  8
17  18  8
19  20  8
3  6  8
3  9  8
5  6  8
5  7  8
7  13  8
7  9  8
9  14  8

$$$$
5353431
  -OEChem-11021605012D

 23 23  0     0  0  0  0  0  0999 V2000
    3.0000    0.2500    0.0000 S   0  0  0  0  0  0  0  0  0  0  0  0
    4.0000    0.2500    0.0000 O   0  0  0  0  0  0  0  0  0  0  0  0
    2.0000    0.2500    0.0000 O   0  0  0  0  0  0  0  0  0  0  0  0
    3.8660    3.7500    0.0000 N   0  0  0  0  0  0  0  0  0  0  0  0
    3.0000   -0.7500    0.0000 C   0  0  0  0  0  0  0  0  0  0  0  0
    3.0000   -2.7500    0.0000 C   0  0  0  0  0  0  0  0  0  0  0  0
    2.1340   -1.2500    0.0000 C   0  0  0  0  0  0  0  0  0  0  0  0
    3.8660   -1.2500    0.0000 C   0  0  0  0  0  0  0  0  0  0  0  0
    2.1340   -2.2500    0.0000 C   0  0  0  0  0  0  0  0  0  0  0  0
    3.8660   -2.2500    0.0000 C   0  0  0  0  0  0  0  0  0  0  0  0
    3.0000   -3.7500    0.0000 C   0  0  0  0  0  0  0  0  0  0  0  0
    3.0000    1.2500    0.0000 C   0  0  0  0  0  0  0  0  0  0  0  0
    3.8660    1.7500    0.0000 C   0  0  0  0  0  0  0  0  0  0  0  0
    3.8660    2.7500    0.0000 C   0  0  0  0  0  0  0  0  0  0  0  0
    1.5970   -0.9400    0.0000 H   0  0  0  0  0  0  0  0  0  0  0  0
    4.4030   -0.9400    0.0000 H   0  0  0  0  0  0  0  0  0  0  0  0
    1.5970   -2.5600    0.0000 H   0  0  0  0  0  0  0  0  0  0  0  0
    4.4030   -2.5600    0.0000 H   0  0  0  0  0  0  0  0  0  0  0  0
    2.4631    1.5600    0.0000 H   0  0  0  0  0  0  0  0  0  0  0  0
    2.3800   -3.7500    0.0000 H   0  0  0  0  0  0  0  0  0  0  0  0
    3.0000   -4.3700    0.0000 H   0  0  0  0  0  0  0  0  0  0  0  0
    3.6200   -3.7500    0.0000 H   0  0  0  0  0  0  0  0  0  0  0  0
    4.4030    1.4400    0.0000 H   0  0  0  0  0  0  0  0  0  0  0  0
  1  2  2  0  0  0  0
  1  3  2  0  0  0  0
  1  5  1  0  0  0  0
  1 12  1  0  0  0  0
  4 14  3  0  0  0  0
  5  7  2  0  0  0  0
  5  8  1  0  0  0  0
  6  9  2  0  0  0  0
  6 10  1  0  0  0  0
  6 11  1  0  0  0  0
  7  9  1  0  0  0  0
  7 15  1  0  0  0  0
  8 10  2  0  0  0  0
  8 16  1  0  0  0  0
  9 17  1  0  0  0  0
 10 18  1  0  0  0  0
 11 20  1  0  0  0  0
 11 21  1  0  0  0  0
 11 22  1  0  0  0  0
 12 13  2  0  0  0  0
 12 19  1  0  0  0  0
 13 14  1  0  0  0  0
 13 23  1  0  0  0  0
M  END
> <PUBCHEM_COMPOUND_CID>
5353431

> <PUBCHEM_COMPOUND_CANONICALIZED>
1

> <PUBCHEM_CACTVS_COMPLEXITY>
347

> <PUBCHEM_CACTVS_HBOND_ACCEPTOR>
3

> <PUBCHEM_CACTVS_HBOND_DONOR>
0

> <PUBCHEM_CACTVS_ROTATABLE_BOND>
2

> <PUBCHEM_CACTVS_SUBSKEYS>
AAADccByMABAAAAAAAAAAAAAAAAAAAAAAAAwAAAAAAAAAAABAAAAHAQAAAAADACFWACyAYAAAAqQBiBCAHBiAAAgCBAIiBgAAIgIICKgERCAIAAggAAIiAcAgAAOEAAAAAAAAAAgAAAAAAAAAAAAAAAAAA==

> <PUBCHEM_IUPAC_OPENEYE_NAME>
(E)-3-(p-tolylsulfonyl)prop-2-enenitrile

> <PUBCHEM_IUPAC_CAS_NAME>
(E)-3-(4-methylphenyl)sulfonyl-2-propenenitrile

> <PUBCHEM_IUPAC_NAME>
(E)-3-(4-methylphenyl)sulfonylprop-2-enenitrile

> <PUBCHEM_IUPAC_SYSTEMATIC_NAME>
(E)-3-(4-methylphenyl)sulfonylprop-2-enenitrile

> <PUBCHEM_IUPAC_TRADITIONAL_NAME>
(E)-3-tosylacrylonitrile

> <PUBCHEM_IUPAC_INCHI>
InChI=1S/C10H9NO2S/c1-9-3-5-10(6-4-9)14(12,13)8-2-7-11/h2-6,8H,1H3/b8-2+

> <PUBCHEM_IUPAC_INCHIKEY>
DOEWDSDBFRHVAP-KRXBUXKQSA-N

> <PUBCHEM_XLOGP3_AA>
1.4

> <PUBCHEM_EXACT_MASS>
207.035

> <PUBCHEM_MOLECULAR_FORMULA>
C10H9NO2S

> <PUBCHEM_MOLECULAR_WEIGHT>
207.247

> <PUBCHEM_OPENEYE_CAN_SMILES>
CC1=CC=C(C=C1)S(=O)(=O)C=CC#N

> <PUBCHEM_OPENEYE_ISO_SMILES>
CC1=CC=C(C=C1)S(=O)(=O)/C=C/C#N

> <PUBCHEM_CACTVS_TPSA>
66.3

> <PUBCHEM_MONOISOTOPIC_WEIGHT>
207.035

> <PUBCHEM_TOTAL_CHARGE>
0

> <PUBCHEM_HEAVY_ATOM_COUNT>
14

> <PUBCHEM_ATOM_DEF_STEREO_COUNT>
0

> <PUBCHEM_ATOM_UDEF_STEREO_COUNT>
0

> <PUBCHEM_BOND_DEF_STEREO_COUNT>
1

> <PUBCHEM_BOND_UDEF_STEREO_COUNT>
0

> <PUBCHEM_ISOTOPIC_ATOM_COUNT>
0

> <PUBCHEM_COMPONENT_COUNT>
1

> <PUBCHEM_CACTVS_TAUTO_COUNT>
1

> <PUBCHEM_COORDINATE_TYPE>
1
5
255

> <PUBCHEM_BONDANNOTATIONS>
5  7  8
5  8  8
6  10  8
6  9  8
7  9  8
8  10  8

$$$$
11524144
  -OEChem-11021605012D

 55 59  0     0  0  0  0  0  0999 V2000
    3.7320    0.8281    0.0000 O   0  0  0  0  0  0  0  0  0  0  0  0
    2.8660    3.3282    0.0000 N   0  0  0  0  0  0  0  0  0  0  0  0
    8.9282   -1.1718    0.0000 N   0  0  0  0  0  0  0  0  0  0  0  0
    8.0622   -2.6718    0.0000 N   0  0  0  0  0  0  0  0  0  0  0  0
    9.8744   -0.8671    0.0000 N   0  0  0  0  0  0  0  0  0  0  0  0
   10.8064   -5.3282    0.0000 N   0  0  0  0  0  0  0  0  0  0  0  0
    3.7320    3.8282    0.0000 C   0  0  0  0  0  0  0  0  0  0  0  0
    2.0000    3.8282    0.0000 C   0  0  0  0  0  0  0  0  0  0  0  0
    3.7320    4.8282    0.0000 C   0  0  0  0  0  0  0  0  0  0  0  0
    2.0000    4.8282    0.0000 C   0  0  0  0  0  0  0  0  0  0  0  0
    2.8660    5.3282    0.0000 C   0  0  0  0  0  0  0  0  0  0  0  0
    2.8660    2.3282    0.0000 C   0  0  0  0  0  0  0  0  0  0  0  0
    3.7320    1.8282    0.0000 C   0  0  0  0  0  0  0  0  0  0  0  0
    4.5981    0.3281    0.0000 C   0  0  0  0  0  0  0  0  0  0  0  0
    6.3301   -0.6719    0.0000 C   0  0  0  0  0  0  0  0  0  0  0  0
    4.5981   -0.6719    0.0000 C   0  0  0  0  0  0  0  0  0  0  0  0
    5.4641    0.8281    0.0000 C   0  0  0  0  0  0  0  0  0  0  0  0
    7.1962   -1.1718    0.0000 C   0  0  0  0  0  0  0  0  0  0  0  0
    5.4641   -1.1718    0.0000 C   0  0  0  0  0  0  0  0  0  0  0  0
    6.3301    0.3281    0.0000 C   0  0  0  0  0  0  0  0  0  0  0  0
    8.9282   -2.1718    0.0000 C   0  0  0  0  0  0  0  0  0  0  0  0
    9.8744   -2.4766    0.0000 C   0  0  0  0  0  0  0  0  0  0  0  0
    8.0622   -0.6719    0.0000 C   0  0  0  0  0  0  0  0  0  0  0  0
    7.1962   -2.1718    0.0000 C   0  0  0  0  0  0  0  0  0  0  0  0
   10.1851   -3.4271    0.0000 C   0  0  0  0  0  0  0  0  0  0  0  0
   10.4580   -1.6718    0.0000 C   0  0  0  0  0  0  0  0  0  0  0  0
    9.5172   -4.1714    0.0000 C   0  0  0  0  0  0  0  0  0  0  0  0
   11.1636   -3.6333    0.0000 C   0  0  0  0  0  0  0  0  0  0  0  0
    9.8279   -5.1219    0.0000 C   0  0  0  0  0  0  0  0  0  0  0  0
   11.4743   -4.5838    0.0000 C   0  0  0  0  0  0  0  0  0  0  0  0
    3.9441    3.2455    0.0000 H   0  0  0  0  0  0  0  0  0  0  0  0
    4.3426    3.9358    0.0000 H   0  0  0  0  0  0  0  0  0  0  0  0
    1.3894    3.9358    0.0000 H   0  0  0  0  0  0  0  0  0  0  0  0
    1.7880    3.2455    0.0000 H   0  0  0  0  0  0  0  0  0  0  0  0
    4.3426    4.7205    0.0000 H   0  0  0  0  0  0  0  0  0  0  0  0
    3.9441    5.4108    0.0000 H   0  0  0  0  0  0  0  0  0  0  0  0
    1.7880    5.4108    0.0000 H   0  0  0  0  0  0  0  0  0  0  0  0
    1.3894    4.7205    0.0000 H   0  0  0  0  0  0  0  0  0  0  0  0
    3.2646    5.8031    0.0000 H   0  0  0  0  0  0  0  0  0  0  0  0
    2.4675    5.8031    0.0000 H   0  0  0  0  0  0  0  0  0  0  0  0
    2.2554    2.4358    0.0000 H   0  0  0  0  0  0  0  0  0  0  0  0
    2.6540    1.7455    0.0000 H   0  0  0  0  0  0  0  0  0  0  0  0
    4.3426    1.7205    0.0000 H   0  0  0  0  0  0  0  0  0  0  0  0
    3.9441    2.4108    0.0000 H   0  0  0  0  0  0  0  0  0  0  0  0
    4.0611   -0.9819    0.0000 H   0  0  0  0  0  0  0  0  0  0  0  0
    5.4641    1.4482    0.0000 H   0  0  0  0  0  0  0  0  0  0  0  0
    5.4641   -1.7918    0.0000 H   0  0  0  0  0  0  0  0  0  0  0  0
    6.8671    0.6381    0.0000 H   0  0  0  0  0  0  0  0  0  0  0  0
    8.0622   -0.0519    0.0000 H   0  0  0  0  0  0  0  0  0  0  0  0
    6.6592   -2.4818    0.0000 H   0  0  0  0  0  0  0  0  0  0  0  0
   11.0780   -1.6718    0.0000 H   0  0  0  0  0  0  0  0  0  0  0  0
    8.9106   -4.0436    0.0000 H   0  0  0  0  0  0  0  0  0  0  0  0
   11.5777   -3.1719    0.0000 H   0  0  0  0  0  0  0  0  0  0  0  0
    9.4138   -5.5834    0.0000 H   0  0  0  0  0  0  0  0  0  0  0  0
   12.0809   -4.7117    0.0000 H   0  0  0  0  0  0  0  0  0  0  0  0
  1 13  1  0  0  0  0
  1 14  1  0  0  0  0
  2  7  1  0  0  0  0
  2  8  1  0  0  0  0
  2 12  1  0  0  0  0
  3  5  1  0  0  0  0
  3 21  1  0  0  0  0
  3 23  1  0  0  0  0
  4 21  1  0  0  0  0
  4 24  2  0  0  0  0
  5 26  2  0  0  0  0
  6 29  2  0  0  0  0
  6 30  1  0  0  0  0
  7  9  1  0  0  0  0
  7 31  1  0  0  0  0
  7 32  1  0  0  0  0
  8 10  1  0  0  0  0
  8 33  1  0  0  0  0
  8 34  1  0  0  0  0
  9 11  1  0  0  0  0
  9 35  1  0  0  0  0
  9 36  1  0  0  0  0
 10 11  1  0  0  0  0
 10 37  1  0  0  0  0
 10 38  1  0  0  0  0
 11 39  1  0  0  0  0
 11 40  1  0  0  0  0
 12 13  1  0  0  0  0
 12 41  1  0  0  0  0
 12 42  1  0  0  0  0
 13 43  1  0  0  0  0
 13 44  1  0  0  0  0
 14 16  2  0  0  0  0
 14 17  1  0  0  0  0
 15 18  1  0  0  0  0
 15 19  2  0  0  0  0
 15 20  1  0  0  0  0
 16 19  1  0  0  0  0
 16 45  1  0  0  0  0
 17 20  2  0  0  0  0
 17 46  1  0  0  0  0
 18 23  2  0  0  0  0
 18 24  1  0  0  0  0
 19 47  1  0  0  0  0
 20 48  1  0  0  0  0
 21 22  2  0  0  0  0
 22 25  1  0  0  0  0
 22 26  1  0  0  0  0
 23 49  1  0  0  0  0
 24 50  1  0  0  0  0
 25 27  2  0  0  0  0
 25 28  1  0  0  0  0
 26 51  1  0  0  0  0
 27 29  1  0  0  0  0
 27 52  1  0  0  0  0
 28 30  2  0  0  0  0
 28 53  1  0  0  0  0
 29 54  1  0  0  0  0
 30 55  1  0  0  0  0
M  END
> <PUBCHEM_COMPOUND_CID>
11524144

> <PUBCHEM_COMPOUND_CANONICALIZED>
1

> <PUBCHEM_CACTVS_COMPLEXITY>
514

> <PUBCHEM_CACTVS_HBOND_ACCEPTOR>
5

> <PUBCHEM_CACTVS_HBOND_DONOR>
0

> <PUBCHEM_CACTVS_ROTATABLE_BOND>
6

> <PUBCHEM_CACTVS_SUBSKEYS>
AAADceB7oAAAAAAAAAAAAAAAAAAAAWAAAAA8WLEAAAAAAFgB/AAAHgAIAAAADAThmwY9tp8IFACiAjJnZACSjCsxoqAd2CA+bJiOLuLE+duHvCjsyBPY6CeQwNAOoAAAAAAAAABAAAAAAAAAAAAAAAAAAA==

> <PUBCHEM_IUPAC_OPENEYE_NAME>
6-[4-[2-(1-piperidyl)ethoxy]phenyl]-3-(4-pyridyl)pyrazolo[1,5-a]pyrimidine

> <PUBCHEM_IUPAC_CAS_NAME>
6-[4-[2-(1-piperidinyl)ethoxy]phenyl]-3-pyridin-4-ylpyrazolo[1,5-a]pyrimidine

> <PUBCHEM_IUPAC_NAME>
6-[4-(2-piperidin-1-ylethoxy)phenyl]-3-pyridin-4-ylpyrazolo[1,5-a]pyrimidine

> <PUBCHEM_IUPAC_SYSTEMATIC_NAME>
6-[4-(2-piperidin-1-ylethoxy)phenyl]-3-pyridin-4-yl-pyrazolo[1,5-a]pyrimidine

> <PUBCHEM_IUPAC_TRADITIONAL_NAME>
6-[4-(2-piperidinoethoxy)phenyl]-3-(4-pyridyl)pyrazolo[1,5-a]pyrimidine

> <PUBCHEM_IUPAC_INCHI>
InChI=1S/C24H25N5O/c1-2-12-28(13-3-1)14-15-30-22-6-4-19(5-7-22)21-16-26-24-23(17-27-29(24)18-21)20-8-10-25-11-9-20/h4-11,16-18H,1-3,12-15H2

> <PUBCHEM_IUPAC_INCHIKEY>
XHBVYDAKJHETMP-UHFFFAOYSA-N

> <PUBCHEM_XLOGP3_AA>
3.4

> <PUBCHEM_EXACT_MASS>
399.206

> <PUBCHEM_MOLECULAR_FORMULA>
C24H25N5O

> <PUBCHEM_MOLECULAR_WEIGHT>
399.498

> <PUBCHEM_OPENEYE_CAN_SMILES>
C1CCN(CC1)CCOC2=CC=C(C=C2)C3=CN4C(=C(C=N4)C5=CC=NC=C5)N=C3

> <PUBCHEM_OPENEYE_ISO_SMILES>
C1CCN(CC1)CCOC2=CC=C(C=C2)C3=CN4C(=C(C=N4)C5=CC=NC=C5)N=C3

> <PUBCHEM_CACTVS_TPSA>
55.6

> <PUBCHEM_MONOISOTOPIC_WEIGHT>
399.206

> <PUBCHEM_TOTAL_CHARGE>
0

> <PUBCHEM_HEAVY_ATOM_COUNT>
30

> <PUBCHEM_ATOM_DEF_STEREO_COUNT>
0

> <PUBCHEM_ATOM_UDEF_STEREO_COUNT>
0

> <PUBCHEM_BOND_DEF_STEREO_COUNT>
0

> <PUBCHEM_BOND_UDEF_STEREO_COUNT>
0

> <PUBCHEM_ISOTOPIC_ATOM_COUNT>
0

> <PUBCHEM_COMPONENT_COUNT>
1

> <PUBCHEM_CACTVS_TAUTO_COUNT>
1

> <PUBCHEM_COORDINATE_TYPE>
1
5
255

> <PUBCHEM_BONDANNOTATIONS>
14  16  8
14  17  8
15  19  8
15  20  8
16  19  8
17  20  8
18  23  8
18  24  8
21  22  8
22  26  8
25  27  8
25  28  8
27  29  8
28  30  8
3  21  8
3  23  8
3  5  8
4  21  8
4  24  8
5  26  8
6  29  8
6  30  8

$$$$
5312126
  -OEChem-11021605012D

 86 92  0     1  0  0  0  0  0999 V2000
   11.5783    1.4827    0.0000 S   0  0  0  0  0  0  0  0  0  0  0  0
    5.5161   -1.0173    0.0000 S   0  0  0  0  0  0  0  0  0  0  0  0
    9.8462   -1.5173    0.0000 O   0  0  0  0  0  0  0  0  0  0  0  0
   10.5783    1.4827    0.0000 O   0  0  0  0  0  0  0  0  0  0  0  0
   12.5783    1.4827    0.0000 O   0  0  0  0  0  0  0  0  0  0  0  0
    6.3821   -1.5173    0.0000 O   0  0  0  0  0  0  0  0  0  0  0  0
    5.0161   -1.8834    0.0000 O   0  0  0  0  0  0  0  0  0  0  0  0
    6.0161   -0.1513    0.0000 O   0  0  0  0  0  0  0  0  0  0  0  0
   11.5783   -1.5173    0.0000 N   0  0  0  0  0  0  0  0  0  0  0  0
   13.3103   -2.5173    0.0000 N   0  0  0  0  0  0  0  0  0  0  0  0
   11.5783    0.4827    0.0000 N   0  0  3  0  0  0  0  0  0  0  0  0
   14.2443    4.0035    0.0000 N   0  0  0  0  0  0  0  0  0  0  0  0
    2.0000   -2.0658    0.0000 N   0  0  0  0  0  0  0  0  0  0  0  0
   10.7123   -0.0173    0.0000 C   0  0  2  0  0  0  0  0  0  0  0  0
   12.4443   -1.0173    0.0000 C   0  0  0  0  0  0  0  0  0  0  0  0
   11.5783   -2.5173    0.0000 C   0  0  0  0  0  0  0  0  0  0  0  0
   13.3103   -1.5173    0.0000 C   0  0  0  0  0  0  0  0  0  0  0  0
   12.4443   -3.0173    0.0000 C   0  0  0  0  0  0  0  0  0  0  0  0
   10.7123   -1.0173    0.0000 C   0  0  0  0  0  0  0  0  0  0  0  0
    9.8462    0.4827    0.0000 C   0  0  0  0  0  0  0  0  0  0  0  0
   14.1764   -3.0173    0.0000 C   0  0  0  0  0  0  0  0  0  0  0  0
    8.9802   -0.0173    0.0000 C   0  0  0  0  0  0  0  0  0  0  0  0
   12.4443   -0.0173    0.0000 C   0  0  0  0  0  0  0  0  0  0  0  0
   11.5783    2.4827    0.0000 C   0  0  0  0  0  0  0  0  0  0  0  0
   15.0424   -2.5173    0.0000 C   0  0  0  0  0  0  0  0  0  0  0  0
   14.1764   -4.0173    0.0000 C   0  0  0  0  0  0  0  0  0  0  0  0
   12.4443    2.9827    0.0000 C   0  0  0  0  0  0  0  0  0  0  0  0
    8.9802   -1.0173    0.0000 C   0  0  0  0  0  0  0  0  0  0  0  0
    8.1142    0.4827    0.0000 C   0  0  0  0  0  0  0  0  0  0  0  0
   10.7123    2.9827    0.0000 C   0  0  0  0  0  0  0  0  0  0  0  0
   12.4443    3.9827    0.0000 C   0  0  0  0  0  0  0  0  0  0  0  0
   15.9084   -3.0173    0.0000 C   0  0  0  0  0  0  0  0  0  0  0  0
   15.0424   -4.5173    0.0000 C   0  0  0  0  0  0  0  0  0  0  0  0
    8.1142   -1.5173    0.0000 C   0  0  0  0  0  0  0  0  0  0  0  0
    7.2482   -0.0173    0.0000 C   0  0  0  0  0  0  0  0  0  0  0  0
    7.2482   -1.0173    0.0000 C   0  0  0  0  0  0  0  0  0  0  0  0
   15.9084   -4.0173    0.0000 C   0  0  0  0  0  0  0  0  0  0  0  0
   10.7123    3.9827    0.0000 C   0  0  0  0  0  0  0  0  0  0  0  0
   13.3383    2.4480    0.0000 C   0  0  0  0  0  0  0  0  0  0  0  0
   11.5783    4.4827    0.0000 C   0  0  0  0  0  0  0  0  0  0  0  0
   13.3383    4.5173    0.0000 C   0  0  0  0  0  0  0  0  0  0  0  0
   14.2443    2.9618    0.0000 C   0  0  0  0  0  0  0  0  0  0  0  0
    4.6501   -0.5173    0.0000 C   0  0  0  0  0  0  0  0  0  0  0  0
    3.7841   -1.0173    0.0000 C   0  0  0  0  0  0  0  0  0  0  0  0
    4.6501    0.4827    0.0000 C   0  0  0  0  0  0  0  0  0  0  0  0
    2.9180   -0.5173    0.0000 C   0  0  0  0  0  0  0  0  0  0  0  0
    3.7841    0.9827    0.0000 C   0  0  0  0  0  0  0  0  0  0  0  0
    2.9180    0.4827    0.0000 C   0  0  0  0  0  0  0  0  0  0  0  0
    3.8001   -2.0588    0.0000 C   0  0  0  0  0  0  0  0  0  0  0  0
    2.0080   -1.0242    0.0000 C   0  0  0  0  0  0  0  0  0  0  0  0
    2.9021   -2.5866    0.0000 C   0  0  0  0  0  0  0  0  0  0  0  0
   10.7123    0.6027    0.0000 H   0  0  0  0  0  0  0  0  0  0  0  0
   12.8428   -0.5424    0.0000 H   0  0  0  0  0  0  0  0  0  0  0  0
   12.0458   -0.5424    0.0000 H   0  0  0  0  0  0  0  0  0  0  0  0
   10.9677   -2.4097    0.0000 H   0  0  0  0  0  0  0  0  0  0  0  0
   11.3662   -3.0999    0.0000 H   0  0  0  0  0  0  0  0  0  0  0  0
   13.9209   -1.6250    0.0000 H   0  0  0  0  0  0  0  0  0  0  0  0
   13.5224   -0.9347    0.0000 H   0  0  0  0  0  0  0  0  0  0  0  0
   12.0458   -3.4923    0.0000 H   0  0  0  0  0  0  0  0  0  0  0  0
   12.8428   -3.4923    0.0000 H   0  0  0  0  0  0  0  0  0  0  0  0
   10.2448    0.9576    0.0000 H   0  0  0  0  0  0  0  0  0  0  0  0
    9.4477    0.9576    0.0000 H   0  0  0  0  0  0  0  0  0  0  0  0
   12.1343   -0.5543    0.0000 H   0  0  0  0  0  0  0  0  0  0  0  0
   12.9812   -0.3273    0.0000 H   0  0  0  0  0  0  0  0  0  0  0  0
   12.7543    0.5196    0.0000 H   0  0  0  0  0  0  0  0  0  0  0  0
   15.0424   -1.8973    0.0000 H   0  0  0  0  0  0  0  0  0  0  0  0
   13.6394   -4.3273    0.0000 H   0  0  0  0  0  0  0  0  0  0  0  0
    9.5172   -1.3273    0.0000 H   0  0  0  0  0  0  0  0  0  0  0  0
    8.1142    1.1027    0.0000 H   0  0  0  0  0  0  0  0  0  0  0  0
   10.1753    2.6727    0.0000 H   0  0  0  0  0  0  0  0  0  0  0  0
   16.4453   -2.7073    0.0000 H   0  0  0  0  0  0  0  0  0  0  0  0
   15.0424   -5.1373    0.0000 H   0  0  0  0  0  0  0  0  0  0  0  0
    8.1142   -2.1373    0.0000 H   0  0  0  0  0  0  0  0  0  0  0  0
    6.7112    0.2927    0.0000 H   0  0  0  0  0  0  0  0  0  0  0  0
   16.4453   -4.3273    0.0000 H   0  0  0  0  0  0  0  0  0  0  0  0
   10.1753    4.2927    0.0000 H   0  0  0  0  0  0  0  0  0  0  0  0
   13.3311    1.8280    0.0000 H   0  0  0  0  0  0  0  0  0  0  0  0
   11.5783    5.1027    0.0000 H   0  0  0  0  0  0  0  0  0  0  0  0
   13.3311    5.1373    0.0000 H   0  0  0  0  0  0  0  0  0  0  0  0
   14.7801    2.6498    0.0000 H   0  0  0  0  0  0  0  0  0  0  0  0
    5.1870    0.7927    0.0000 H   0  0  0  0  0  0  0  0  0  0  0  0
    3.7841    1.6027    0.0000 H   0  0  0  0  0  0  0  0  0  0  0  0
    2.3811    0.7927    0.0000 H   0  0  0  0  0  0  0  0  0  0  0  0
    4.3406   -2.3626    0.0000 H   0  0  0  0  0  0  0  0  0  0  0  0
    1.4747   -0.7080    0.0000 H   0  0  0  0  0  0  0  0  0  0  0  0
    2.9045   -3.2066    0.0000 H   0  0  0  0  0  0  0  0  0  0  0  0
  1  4  2  0  0  0  0
  1  5  2  0  0  0  0
  1 11  1  0  0  0  0
  1 24  1  0  0  0  0
  2  6  1  0  0  0  0
  2  7  2  0  0  0  0
  2  8  2  0  0  0  0
  2 43  1  0  0  0  0
  3 19  2  0  0  0  0
  6 36  1  0  0  0  0
  9 15  1  0  0  0  0
  9 16  1  0  0  0  0
  9 19  1  0  0  0  0
 10 17  1  0  0  0  0
 10 18  1  0  0  0  0
 10 21  1  0  0  0  0
 14 11  1  6  0  0  0
 11 23  1  0  0  0  0
 12 41  2  0  0  0  0
 12 42  1  0  0  0  0
 13 50  2  0  0  0  0
 13 51  1  0  0  0  0
 14 19  1  0  0  0  0
 14 20  1  0  0  0  0
 14 52  1  0  0  0  0
 15 17  1  0  0  0  0
 15 53  1  0  0  0  0
 15 54  1  0  0  0  0
 16 18  1  0  0  0  0
 16 55  1  0  0  0  0
 16 56  1  0  0  0  0
 17 57  1  0  0  0  0
 17 58  1  0  0  0  0
 18 59  1  0  0  0  0
 18 60  1  0  0  0  0
 20 22  1  0  0  0  0
 20 61  1  0  0  0  0
 20 62  1  0  0  0  0
 21 25  2  0  0  0  0
 21 26  1  0  0  0  0
 22 28  2  0  0  0  0
 22 29  1  0  0  0  0
 23 63  1  0  0  0  0
 23 64  1  0  0  0  0
 23 65  1  0  0  0  0
 24 27  1  0  0  0  0
 24 30  2  0  0  0  0
 25 32  1  0  0  0  0
 25 66  1  0  0  0  0
 26 33  2  0  0  0  0
 26 67  1  0  0  0  0
 27 31  2  0  0  0  0
 27 39  1  0  0  0  0
 28 34  1  0  0  0  0
 28 68  1  0  0  0  0
 29 35  2  0  0  0  0
 29 69  1  0  0  0  0
 30 38  1  0  0  0  0
 30 70  1  0  0  0  0
 31 40  1  0  0  0  0
 31 41  1  0  0  0  0
 32 37  2  0  0  0  0
 32 71  1  0  0  0  0
 33 37  1  0  0  0  0
 33 72  1  0  0  0  0
 34 36  2  0  0  0  0
 34 73  1  0  0  0  0
 35 36  1  0  0  0  0
 35 74  1  0  0  0  0
 37 75  1  0  0  0  0
 38 40  2  0  0  0  0
 38 76  1  0  0  0  0
 39 42  2  0  0  0  0
 39 77  1  0  0  0  0
 40 78  1  0  0  0  0
 41 79  1  0  0  0  0
 42 80  1  0  0  0  0
 43 44  1  0  0  0  0
 43 45  2  0  0  0  0
 44 46  2  0  0  0  0
 44 49  1  0  0  0  0
 45 47  1  0  0  0  0
 45 81  1  0  0  0  0
 46 48  1  0  0  0  0
 46 50  1  0  0  0  0
 47 48  2  0  0  0  0
 47 82  1  0  0  0  0
 48 83  1  0  0  0  0
 49 51  2  0  0  0  0
 49 84  1  0  0  0  0
 50 85  1  0  0  0  0
 51 86  1  0  0  0  0
M  END
> <PUBCHEM_COMPOUND_CID>
5312126

> <PUBCHEM_COMPOUND_CANONICALIZED>
1

> <PUBCHEM_CACTVS_COMPLEXITY>
1370

> <PUBCHEM_CACTVS_HBOND_ACCEPTOR>
10

> <PUBCHEM_CACTVS_HBOND_DONOR>
0

> <PUBCHEM_CACTVS_ROTATABLE_BOND>
10

> <PUBCHEM_CACTVS_SUBSKEYS>
AAADcfB/uABgAAAAAAAAAAAAAAAAAAAAAAA8ePGCAAAAAACx/gAAHgQAQAAADCzB2gQ+x9MIEAKoAjV3VHDCgHAxIiAI2Dm+bJgIZvLAkbOUMAhkxhHIyAeYyKCOoAAAgAAUAABAAAEAACgAAAAAAAAAAA==

> <PUBCHEM_IUPAC_OPENEYE_NAME>
[4-[(2S)-2-[5-isoquinolylsulfonyl(methyl)amino]-3-oxo-3-(4-phenylpiperazin-1-yl)propyl]phenyl] isoquinoline-5-sulfonate

> <PUBCHEM_IUPAC_CAS_NAME>
5-isoquinolinesulfonic acid [4-[(2S)-2-[5-isoquinolinylsulfonyl(methyl)amino]-3-oxo-3-(4-phenyl-1-piperazinyl)propyl]phenyl] ester

> <PUBCHEM_IUPAC_NAME>
[4-[(2S)-2-[isoquinolin-5-ylsulfonyl(methyl)amino]-3-oxo-3-(4-phenylpiperazin-1-yl)propyl]phenyl] isoquinoline-5-sulfonate

> <PUBCHEM_IUPAC_SYSTEMATIC_NAME>
[4-[(2S)-2-[isoquinolin-5-ylsulfonyl(methyl)amino]-3-oxidanylidene-3-(4-phenylpiperazin-1-yl)propyl]phenyl] isoquinoline-5-sulfonate

> <PUBCHEM_IUPAC_TRADITIONAL_NAME>
isoquinoline-5-sulfonic acid [4-[(2S)-2-[5-isoquinolylsulfonyl(methyl)amino]-3-keto-3-(4-phenylpiperazino)propyl]phenyl] ester

> <PUBCHEM_IUPAC_INCHI>
InChI=1S/C38H35N5O6S2/c1-41(50(45,46)36-11-5-7-29-26-39-19-17-33(29)36)35(38(44)43-23-21-42(22-24-43)31-9-3-2-4-10-31)25-28-13-15-32(16-14-28)49-51(47,48)37-12-6-8-30-27-40-20-18-34(30)37/h2-20,26-27,35H,21-25H2,1H3/t35-/m0/s1

> <PUBCHEM_IUPAC_INCHIKEY>
RJVLFQBBRSMWHX-DHUJRADRSA-N

> <PUBCHEM_XLOGP3_AA>
5.6

> <PUBCHEM_EXACT_MASS>
721.203

> <PUBCHEM_MOLECULAR_FORMULA>
C38H35N5O6S2

> <PUBCHEM_MOLECULAR_WEIGHT>
721.847

> <PUBCHEM_OPENEYE_CAN_SMILES>
CN(C(CC1=CC=C(C=C1)OS(=O)(=O)C2=CC=CC3=C2C=CN=C3)C(=O)N4CCN(CC4)C5=CC=CC=C5)S(=O)(=O)C6=CC=CC7=C6C=CN=C7

> <PUBCHEM_OPENEYE_ISO_SMILES>
CN([C@@H](CC1=CC=C(C=C1)OS(=O)(=O)C2=CC=CC3=C2C=CN=C3)C(=O)N4CCN(CC4)C5=CC=CC=C5)S(=O)(=O)C6=CC=CC7=C6C=CN=C7

> <PUBCHEM_CACTVS_TPSA>
147

> <PUBCHEM_MONOISOTOPIC_WEIGHT>
721.203

> <PUBCHEM_TOTAL_CHARGE>
0

> <PUBCHEM_HEAVY_ATOM_COUNT>
51

> <PUBCHEM_ATOM_DEF_STEREO_COUNT>
1

> <PUBCHEM_ATOM_UDEF_STEREO_COUNT>
0

> <PUBCHEM_BOND_DEF_STEREO_COUNT>
0

> <PUBCHEM_BOND_UDEF_STEREO_COUNT>
0

> <PUBCHEM_ISOTOPIC_ATOM_COUNT>
0

> <PUBCHEM_COMPONENT_COUNT>
1

> <PUBCHEM_CACTVS_TAUTO_COUNT>
1

> <PUBCHEM_COORDINATE_TYPE>
1
5
255

> <PUBCHEM_BONDANNOTATIONS>
14  11  6
12  41  8
12  42  8
13  50  8
13  51  8
21  25  8
21  26  8
22  28  8
22  29  8
24  27  8
24  30  8
25  32  8
26  33  8
27  31  8
27  39  8
28  34  8
29  35  8
30  38  8
31  40  8
31  41  8
32  37  8
33  37  8
34  36  8
35  36  8
38  40  8
39  42  8
43  44  8
43  45  8
44  46  8
44  49  8
45  47  8
46  48  8
46  50  8
47  48  8
49  51  8

$$$$
2794188
  -OEChem-11021605012D

 51 54  0     1  0  0  0  0  0999 V2000
    4.5981    3.6550    0.0000 Cl  0  0  0  0  0  0  0  0  0  0  0  0
    4.5981   -2.3450    0.0000 N   0  0  0  0  0  0  0  0  0  0  0  0
    2.8660   -3.3450    0.0000 N   0  0  0  0  0  0  0  0  0  0  0  0
    6.3301   -2.3450    0.0000 N   0  0  0  0  0  0  0  0  0  0  0  0
    5.4641   -0.8450    0.0000 N   0  0  0  0  0  0  0  0  0  0  0  0
    8.1424   -2.1497    0.0000 N   0  0  0  0  0  0  0  0  0  0  0  0
    8.1424   -0.5403    0.0000 N   0  0  0  0  0  0  0  0  0  0  0  0
    6.3301    0.6550    0.0000 N   0  0  0  0  0  0  0  0  0  0  0  0
    3.7320   -1.8450    0.0000 C   0  0  1  0  0  0  0  0  0  0  0  0
    2.8660   -2.3450    0.0000 C   0  0  2  0  0  0  0  0  0  0  0  0
    3.7320   -0.8450    0.0000 C   0  0  0  0  0  0  0  0  0  0  0  0
    2.0000   -1.8450    0.0000 C   0  0  0  0  0  0  0  0  0  0  0  0
    2.8660   -0.3450    0.0000 C   0  0  0  0  0  0  0  0  0  0  0  0
    2.0000   -0.8450    0.0000 C   0  0  0  0  0  0  0  0  0  0  0  0
    5.4641   -1.8450    0.0000 C   0  0  0  0  0  0  0  0  0  0  0  0
    7.1962   -1.8450    0.0000 C   0  0  0  0  0  0  0  0  0  0  0  0
    7.1962   -0.8450    0.0000 C   0  0  0  0  0  0  0  0  0  0  0  0
    6.3301   -0.3450    0.0000 C   0  0  0  0  0  0  0  0  0  0  0  0
    8.4530   -3.1002    0.0000 C   0  0  0  0  0  0  0  0  0  0  0  0
    8.7260   -1.3450    0.0000 C   0  0  0  0  0  0  0  0  0  0  0  0
    9.4315   -3.3065    0.0000 C   0  0  0  0  0  0  0  0  0  0  0  0
    5.4641    1.1550    0.0000 C   0  0  0  0  0  0  0  0  0  0  0  0
    5.4641    2.1550    0.0000 C   0  0  0  0  0  0  0  0  0  0  0  0
    4.5981    0.6550    0.0000 C   0  0  0  0  0  0  0  0  0  0  0  0
    4.5981    2.6550    0.0000 C   0  0  0  0  0  0  0  0  0  0  0  0
    3.7320    1.1550    0.0000 C   0  0  0  0  0  0  0  0  0  0  0  0
    3.7320    2.1550    0.0000 C   0  0  0  0  0  0  0  0  0  0  0  0
    3.7320   -2.4650    0.0000 H   0  0  0  0  0  0  0  0  0  0  0  0
    3.4030   -2.6550    0.0000 H   0  0  0  0  0  0  0  0  0  0  0  0
    4.3426   -0.9527    0.0000 H   0  0  0  0  0  0  0  0  0  0  0  0
    3.9441   -0.2624    0.0000 H   0  0  0  0  0  0  0  0  0  0  0  0
    1.3894   -1.7373    0.0000 H   0  0  0  0  0  0  0  0  0  0  0  0
    1.7880   -2.4276    0.0000 H   0  0  0  0  0  0  0  0  0  0  0  0
    3.2646    0.1299    0.0000 H   0  0  0  0  0  0  0  0  0  0  0  0
    2.4675    0.1299    0.0000 H   0  0  0  0  0  0  0  0  0  0  0  0
    1.7880   -0.2624    0.0000 H   0  0  0  0  0  0  0  0  0  0  0  0
    1.3894   -0.9527    0.0000 H   0  0  0  0  0  0  0  0  0  0  0  0
    4.5981   -2.9650    0.0000 H   0  0  0  0  0  0  0  0  0  0  0  0
    2.3291   -3.6550    0.0000 H   0  0  0  0  0  0  0  0  0  0  0  0
    3.4030   -3.6550    0.0000 H   0  0  0  0  0  0  0  0  0  0  0  0
    7.8392   -3.1876    0.0000 H   0  0  0  0  0  0  0  0  0  0  0  0
    8.4325   -3.7199    0.0000 H   0  0  0  0  0  0  0  0  0  0  0  0
    9.3460   -1.3450    0.0000 H   0  0  0  0  0  0  0  0  0  0  0  0
    6.8671    0.9650    0.0000 H   0  0  0  0  0  0  0  0  0  0  0  0
    9.3037   -3.9132    0.0000 H   0  0  0  0  0  0  0  0  0  0  0  0
   10.0382   -3.4343    0.0000 H   0  0  0  0  0  0  0  0  0  0  0  0
    9.5594   -2.6998    0.0000 H   0  0  0  0  0  0  0  0  0  0  0  0
    6.0010    2.4650    0.0000 H   0  0  0  0  0  0  0  0  0  0  0  0
    4.5981    0.0350    0.0000 H   0  0  0  0  0  0  0  0  0  0  0  0
    3.1951    0.8450    0.0000 H   0  0  0  0  0  0  0  0  0  0  0  0
    3.1951    2.4650    0.0000 H   0  0  0  0  0  0  0  0  0  0  0  0
  1 25  1  0  0  0  0
  9  2  1  1  0  0  0
  2 15  1  0  0  0  0
  2 38  1  0  0  0  0
 10  3  1  1  0  0  0
  3 39  1  0  0  0  0
  3 40  1  0  0  0  0
  4 15  1  0  0  0  0
  4 16  2  0  0  0  0
  5 15  2  0  0  0  0
  5 18  1  0  0  0  0
  6 16  1  0  0  0  0
  6 19  1  0  0  0  0
  6 20  1  0  0  0  0
  7 17  1  0  0  0  0
  7 20  2  0  0  0  0
  8 18  1  0  0  0  0
  8 22  1  0  0  0  0
  8 44  1  0  0  0  0
  9 10  1  0  0  0  0
  9 11  1  0  0  0  0
  9 28  1  0  0  0  0
 10 12  1  0  0  0  0
 10 29  1  0  0  0  0
 11 13  1  0  0  0  0
 11 30  1  0  0  0  0
 11 31  1  0  0  0  0
 12 14  1  0  0  0  0
 12 32  1  0  0  0  0
 12 33  1  0  0  0  0
 13 14  1  0  0  0  0
 13 34  1  0  0  0  0
 13 35  1  0  0  0  0
 14 36  1  0  0  0  0
 14 37  1  0  0  0  0
 16 17  1  0  0  0  0
 17 18  2  0  0  0  0
 19 21  1  0  0  0  0
 19 41  1  0  0  0  0
 19 42  1  0  0  0  0
 20 43  1  0  0  0  0
 21 45  1  0  0  0  0
 21 46  1  0  0  0  0
 21 47  1  0  0  0  0
 22 23  2  0  0  0  0
 22 24  1  0  0  0  0
 23 25  1  0  0  0  0
 23 48  1  0  0  0  0
 24 26  2  0  0  0  0
 24 49  1  0  0  0  0
 25 27  2  0  0  0  0
 26 27  1  0  0  0  0
 26 50  1  0  0  0  0
 27 51  1  0  0  0  0
M  END
> <PUBCHEM_COMPOUND_CID>
2794188

> <PUBCHEM_COMPOUND_CANONICALIZED>
1

> <PUBCHEM_CACTVS_COMPLEXITY>
481

> <PUBCHEM_CACTVS_HBOND_ACCEPTOR>
6

> <PUBCHEM_CACTVS_HBOND_DONOR>
3

> <PUBCHEM_CACTVS_ROTATABLE_BOND>
5

> <PUBCHEM_CACTVS_SUBSKEYS>
AAADceB7gAAEAAAAAAAAAAAAAAAAAWAAAAA8YIAAAAAAAFgB/AAAHAIQAAAACCrBFyQ38L/MEACgASZjZACCgC0xF6AJ2KAodpiIaGLB29GUJAhokALIyCcQAAAAAAAAAAIAAAAAAAAABAAAQAAAAAAAAA==

> <PUBCHEM_IUPAC_OPENEYE_NAME>
N2-[(1R,2S)-2-aminocyclohexyl]-N6-(3-chlorophenyl)-9-ethyl-purine-2,6-diamine

> <PUBCHEM_IUPAC_CAS_NAME>
N2-[(1R,2S)-2-aminocyclohexyl]-N6-(3-chlorophenyl)-9-ethylpurine-2,6-diamine

> <PUBCHEM_IUPAC_NAME>
2-N-[(1R,2S)-2-aminocyclohexyl]-6-N-(3-chlorophenyl)-9-ethylpurine-2,6-diamine

> <PUBCHEM_IUPAC_SYSTEMATIC_NAME>
N2-[(1R,2S)-2-azanylcyclohexyl]-N6-(3-chlorophenyl)-9-ethyl-purine-2,6-diamine

> <PUBCHEM_IUPAC_TRADITIONAL_NAME>
[(1R,2S)-2-aminocyclohexyl]-[6-(3-chloroanilino)-9-ethyl-purin-2-yl]amine

> <PUBCHEM_IUPAC_INCHI>
InChI=1S/C19H24ClN7/c1-2-27-11-22-16-17(23-13-7-5-6-12(20)10-13)25-19(26-18(16)27)24-15-9-4-3-8-14(15)21/h5-7,10-11,14-15H,2-4,8-9,21H2,1H3,(H2,23,24,25,26)/t14-,15+/m0/s1

> <PUBCHEM_IUPAC_INCHIKEY>
UTBSBSOBZHXMHI-LSDHHAIUSA-N

> <PUBCHEM_XLOGP3_AA>
3.6

> <PUBCHEM_EXACT_MASS>
385.178

> <PUBCHEM_MOLECULAR_FORMULA>
C19H24ClN7

> <PUBCHEM_MOLECULAR_WEIGHT>
385.9

> <PUBCHEM_OPENEYE_CAN_SMILES>
CCN1C=NC2=C1N=C(N=C2NC3=CC(=CC=C3)Cl)NC4CCCCC4N

> <PUBCHEM_OPENEYE_ISO_SMILES>
CCN1C=NC2=C1N=C(N=C2NC3=CC(=CC=C3)Cl)N[C@@H]4CCCC[C@@H]4N

> <PUBCHEM_CACTVS_TPSA>
93.7

> <PUBCHEM_MONOISOTOPIC_WEIGHT>
385.178

> <PUBCHEM_TOTAL_CHARGE>
0

> <PUBCHEM_HEAVY_ATOM_COUNT>
27

> <PUBCHEM_ATOM_DEF_STEREO_COUNT>
2

> <PUBCHEM_ATOM_UDEF_STEREO_COUNT>
0

> <PUBCHEM_BOND_DEF_STEREO_COUNT>
0

> <PUBCHEM_BOND_UDEF_STEREO_COUNT>
0

> <PUBCHEM_ISOTOPIC_ATOM_COUNT>
0

> <PUBCHEM_COMPONENT_COUNT>
1

> <PUBCHEM_CACTVS_TAUTO_COUNT>
9

> <PUBCHEM_COORDINATE_TYPE>
1
5
255

> <PUBCHEM_BONDANNOTATIONS>
16  17  8
17  18  8
9  2  5
22  23  8
22  24  8
23  25  8
24  26  8
25  27  8
26  27  8
10  3  5
4  15  8
4  16  8
5  15  8
5  18  8
6  16  8
6  20  8
7  17  8
7  20  8

$$$$
16760636
  -OEChem-11021605012D

 50 52  0     1  0  0  0  0  0999 V2000
    3.9311    1.6482    0.0000 S   0  0  0  0  0  0  0  0  0  0  0  0
    2.9311    1.6482    0.0000 O   0  0  0  0  0  0  0  0  0  0  0  0
    4.9311    1.6482    0.0000 O   0  0  0  0  0  0  0  0  0  0  0  0
    2.0000   -2.5181    0.0000 O   0  0  0  0  0  0  0  0  0  0  0  0
    3.9311    0.6482    0.0000 N   0  0  3  0  0  0  0  0  0  0  0  0
    3.4311   -1.5424    0.0000 N   0  0  0  0  0  0  0  0  0  0  0  0
    3.1266   -4.1706    0.0000 N   0  0  0  0  0  0  0  0  0  0  0  0
    6.5971    4.1690    0.0000 N   0  0  0  0  0  0  0  0  0  0  0  0
    3.0301    0.2143    0.0000 C   0  0  1  0  0  0  0  0  0  0  0  0
    2.8076   -0.7606    0.0000 C   0  0  0  0  0  0  0  0  0  0  0  0
    4.8321    0.2143    0.0000 C   0  0  0  0  0  0  0  0  0  0  0  0
    5.0546   -0.7606    0.0000 C   0  0  0  0  0  0  0  0  0  0  0  0
    4.4311   -1.5424    0.0000 C   0  0  0  0  0  0  0  0  0  0  0  0
    2.2483    0.8378    0.0000 C   0  0  0  0  0  0  0  0  0  0  0  0
    3.9311    2.6482    0.0000 C   0  0  0  0  0  0  0  0  0  0  0  0
    2.9972   -2.4434    0.0000 C   0  0  0  0  0  0  0  0  0  0  0  0
    4.7971    3.1482    0.0000 C   0  0  0  0  0  0  0  0  0  0  0  0
    3.0651    3.1482    0.0000 C   0  0  0  0  0  0  0  0  0  0  0  0
    3.5605   -3.2696    0.0000 C   0  0  0  0  0  0  0  0  0  0  0  0
    4.7971    4.1482    0.0000 C   0  0  0  0  0  0  0  0  0  0  0  0
    5.6910    2.6136    0.0000 C   0  0  0  0  0  0  0  0  0  0  0  0
    3.0651    4.1482    0.0000 C   0  0  0  0  0  0  0  0  0  0  0  0
    3.9311    4.6482    0.0000 C   0  0  0  0  0  0  0  0  0  0  0  0
    5.6910    4.6829    0.0000 C   0  0  0  0  0  0  0  0  0  0  0  0
    6.5971    3.1274    0.0000 C   0  0  0  0  0  0  0  0  0  0  0  0
    5.6795    1.6136    0.0000 C   0  0  0  0  0  0  0  0  0  0  0  0
    3.0995    0.8304    0.0000 H   0  0  0  0  0  0  0  0  0  0  0  0
    2.2490   -0.4916    0.0000 H   0  0  0  0  0  0  0  0  0  0  0  0
    2.4210   -1.2453    0.0000 H   0  0  0  0  0  0  0  0  0  0  0  0
    5.4521    0.2143    0.0000 H   0  0  0  0  0  0  0  0  0  0  0  0
    4.9700    0.8188    0.0000 H   0  0  0  0  0  0  0  0  0  0  0  0
    5.4411   -1.2453    0.0000 H   0  0  0  0  0  0  0  0  0  0  0  0
    5.6132   -0.4916    0.0000 H   0  0  0  0  0  0  0  0  0  0  0  0
    4.2931   -2.1469    0.0000 H   0  0  0  0  0  0  0  0  0  0  0  0
    4.9897   -1.8114    0.0000 H   0  0  0  0  0  0  0  0  0  0  0  0
    2.6348    1.3225    0.0000 H   0  0  0  0  0  0  0  0  0  0  0  0
    1.7636    1.2244    0.0000 H   0  0  0  0  0  0  0  0  0  0  0  0
    1.8617    0.3531    0.0000 H   0  0  0  0  0  0  0  0  0  0  0  0
    2.5281    2.8382    0.0000 H   0  0  0  0  0  0  0  0  0  0  0  0
    4.0639   -3.6316    0.0000 H   0  0  0  0  0  0  0  0  0  0  0  0
    4.0044   -2.8367    0.0000 H   0  0  0  0  0  0  0  0  0  0  0  0
    2.5281    4.4582    0.0000 H   0  0  0  0  0  0  0  0  0  0  0  0
    3.9311    5.2682    0.0000 H   0  0  0  0  0  0  0  0  0  0  0  0
    5.6839    5.3028    0.0000 H   0  0  0  0  0  0  0  0  0  0  0  0
    7.1329    2.8153    0.0000 H   0  0  0  0  0  0  0  0  0  0  0  0
    5.0595    1.6208    0.0000 H   0  0  0  0  0  0  0  0  0  0  0  0
    5.6723    0.9937    0.0000 H   0  0  0  0  0  0  0  0  0  0  0  0
    6.2994    1.6064    0.0000 H   0  0  0  0  0  0  0  0  0  0  0  0
    3.4759   -4.6829    0.0000 H   0  0  0  0  0  0  0  0  0  0  0  0
    2.5084   -4.2169    0.0000 H   0  0  0  0  0  0  0  0  0  0  0  0
  1  2  2  0  0  0  0
  1  3  2  0  0  0  0
  1  5  1  0  0  0  0
  1 15  1  0  0  0  0
  4 16  2  0  0  0  0
  5  9  1  0  0  0  0
  5 11  1  0  0  0  0
  6 10  1  0  0  0  0
  6 13  1  0  0  0  0
  6 16  1  0  0  0  0
  7 19  1  0  0  0  0
  7 49  1  0  0  0  0
  7 50  1  0  0  0  0
  8 24  2  0  0  0  0
  8 25  1  0  0  0  0
  9 10  1  0  0  0  0
  9 14  1  1  0  0  0
  9 27  1  0  0  0  0
 10 28  1  0  0  0  0
 10 29  1  0  0  0  0
 11 12  1  0  0  0  0
 11 30  1  0  0  0  0
 11 31  1  0  0  0  0
 12 13  1  0  0  0  0
 12 32  1  0  0  0  0
 12 33  1  0  0  0  0
 13 34  1  0  0  0  0
 13 35  1  0  0  0  0
 14 36  1  0  0  0  0
 14 37  1  0  0  0  0
 14 38  1  0  0  0  0
 15 17  1  0  0  0  0
 15 18  2  0  0  0  0
 16 19  1  0  0  0  0
 17 20  2  0  0  0  0
 17 21  1  0  0  0  0
 18 22  1  0  0  0  0
 18 39  1  0  0  0  0
 19 40  1  0  0  0  0
 19 41  1  0  0  0  0
 20 23  1  0  0  0  0
 20 24  1  0  0  0  0
 21 25  2  0  0  0  0
 21 26  1  0  0  0  0
 22 23  2  0  0  0  0
 22 42  1  0  0  0  0
 23 43  1  0  0  0  0
 24 44  1  0  0  0  0
 25 45  1  0  0  0  0
 26 46  1  0  0  0  0
 26 47  1  0  0  0  0
 26 48  1  0  0  0  0
M  END
> <PUBCHEM_COMPOUND_CID>
16760636

> <PUBCHEM_COMPOUND_CANONICALIZED>
1

> <PUBCHEM_CACTVS_COMPLEXITY>
606

> <PUBCHEM_CACTVS_HBOND_ACCEPTOR>
6

> <PUBCHEM_CACTVS_HBOND_DONOR>
1

> <PUBCHEM_CACTVS_ROTATABLE_BOND>
3

> <PUBCHEM_CACTVS_SUBSKEYS>
AAADceB7sABAAAAAAAAAAAAAAAAAAAAAAAA8QAAABYAAAACx8AAAHgQQQAAADCjB2gQ+gdNIEAKoAjF3VHDCgDAxACAI2LioRJgIYOLA0ZGUIAhghgDIyAcQgMAOgAAAgAAUAAAAAAEAACgAAAAAAAAAAA==

> <PUBCHEM_IUPAC_OPENEYE_NAME>
2-amino-1-[(3R)-3-methyl-4-[(4-methyl-5-isoquinolyl)sulfonyl]-1,4-diazepan-1-yl]ethanone

> <PUBCHEM_IUPAC_CAS_NAME>
2-amino-1-[(3R)-3-methyl-4-[(4-methyl-5-isoquinolinyl)sulfonyl]-1,4-diazepan-1-yl]ethanone

> <PUBCHEM_IUPAC_NAME>
2-amino-1-[(3R)-3-methyl-4-(4-methylisoquinolin-5-yl)sulfonyl-1,4-diazepan-1-yl]ethanone

> <PUBCHEM_IUPAC_SYSTEMATIC_NAME>
2-azanyl-1-[(3R)-3-methyl-4-(4-methylisoquinolin-5-yl)sulfonyl-1,4-diazepan-1-yl]ethanone

> <PUBCHEM_IUPAC_TRADITIONAL_NAME>
2-amino-1-[(3R)-3-methyl-4-[(4-methyl-5-isoquinolyl)sulfonyl]-1,4-diazepan-1-yl]ethanone

> <PUBCHEM_IUPAC_INCHI>
InChI=1S/C18H24N4O3S/c1-13-10-20-11-15-5-3-6-16(18(13)15)26(24,25)22-8-4-7-21(12-14(22)2)17(23)9-19/h3,5-6,10-11,14H,4,7-9,12,19H2,1-2H3/t14-/m1/s1

> <PUBCHEM_IUPAC_INCHIKEY>
CMKMGFAUKPAOMG-CQSZACIVSA-N

> <PUBCHEM_XLOGP3_AA>
0.8

> <PUBCHEM_EXACT_MASS>
376.157

> <PUBCHEM_MOLECULAR_FORMULA>
C18H24N4O3S

> <PUBCHEM_MOLECULAR_WEIGHT>
376.475

> <PUBCHEM_OPENEYE_CAN_SMILES>
CC1CN(CCCN1S(=O)(=O)C2=CC=CC3=CN=CC(=C32)C)C(=O)CN

> <PUBCHEM_OPENEYE_ISO_SMILES>
C[C@@H]1CN(CCCN1S(=O)(=O)C2=CC=CC3=CN=CC(=C32)C)C(=O)CN

> <PUBCHEM_CACTVS_TPSA>
105

> <PUBCHEM_MONOISOTOPIC_WEIGHT>
376.157

> <PUBCHEM_TOTAL_CHARGE>
0

> <PUBCHEM_HEAVY_ATOM_COUNT>
26

> <PUBCHEM_ATOM_DEF_STEREO_COUNT>
1

> <PUBCHEM_ATOM_UDEF_STEREO_COUNT>
0

> <PUBCHEM_BOND_DEF_STEREO_COUNT>
0

> <PUBCHEM_BOND_UDEF_STEREO_COUNT>
0

> <PUBCHEM_ISOTOPIC_ATOM_COUNT>
0

> <PUBCHEM_COMPONENT_COUNT>
1

> <PUBCHEM_CACTVS_TAUTO_COUNT>
1

> <PUBCHEM_COORDINATE_TYPE>
1
5
255

> <PUBCHEM_BONDANNOTATIONS>
15  17  8
15  18  8
17  20  8
17  21  8
18  22  8
20  23  8
20  24  8
21  25  8
22  23  8
8  24  8
8  25  8
9  14  5

$$$$
9549305
  -OEChem-11021605012D

 40 42  0     0  0  0  0  0  0999 V2000
    2.8660   -3.7673    0.0000 Cl  0  0  0  0  0  0  0  0  0  0  0  0
    2.8660    0.2327    0.0000 O   0  0  0  0  0  0  0  0  0  0  0  0
    3.7320    0.7327    0.0000 O   0  0  0  0  0  0  0  0  0  0  0  0
    5.4641    0.7327    0.0000 N   0  0  0  0  0  0  0  0  0  0  0  0
    5.4641    3.7327    0.0000 N   0  0  0  0  0  0  0  0  0  0  0  0
    4.5981   -0.7673    0.0000 N   0  0  0  0  0  0  0  0  0  0  0  0
    6.3301    2.2327    0.0000 C   0  0  0  0  0  0  0  0  0  0  0  0
    5.4641    1.7327    0.0000 C   0  0  0  0  0  0  0  0  0  0  0  0
    6.3301    3.2327    0.0000 C   0  0  0  0  0  0  0  0  0  0  0  0
    4.5981    2.2327    0.0000 C   0  0  0  0  0  0  0  0  0  0  0  0
    4.5981    3.2327    0.0000 C   0  0  0  0  0  0  0  0  0  0  0  0
    7.2241    1.6980    0.0000 C   0  0  0  0  0  0  0  0  0  0  0  0
    7.2241    3.7673    0.0000 C   0  0  0  0  0  0  0  0  0  0  0  0
    3.7320   -1.2673    0.0000 C   0  0  0  0  0  0  0  0  0  0  0  0
    8.1301    2.2118    0.0000 C   0  0  0  0  0  0  0  0  0  0  0  0
    4.5981    0.2327    0.0000 C   0  0  0  0  0  0  0  0  0  0  0  0
    8.1301    3.2535    0.0000 C   0  0  0  0  0  0  0  0  0  0  0  0
    3.7320    3.7327    0.0000 C   0  0  0  0  0  0  0  0  0  0  0  0
    2.8660   -0.7673    0.0000 C   0  0  0  0  0  0  0  0  0  0  0  0
    3.7320   -2.2673    0.0000 C   0  0  0  0  0  0  0  0  0  0  0  0
    2.0000   -1.2673    0.0000 C   0  0  0  0  0  0  0  0  0  0  0  0
    2.8660   -2.7673    0.0000 C   0  0  0  0  0  0  0  0  0  0  0  0
    2.0000   -2.2673    0.0000 C   0  0  0  0  0  0  0  0  0  0  0  0
    2.0000    0.7327    0.0000 C   0  0  0  0  0  0  0  0  0  0  0  0
    4.0611    1.9227    0.0000 H   0  0  0  0  0  0  0  0  0  0  0  0
    7.2169    1.0780    0.0000 H   0  0  0  0  0  0  0  0  0  0  0  0
    6.0010    0.4227    0.0000 H   0  0  0  0  0  0  0  0  0  0  0  0
    7.2169    4.3873    0.0000 H   0  0  0  0  0  0  0  0  0  0  0  0
    8.6659    1.8998    0.0000 H   0  0  0  0  0  0  0  0  0  0  0  0
    8.6659    3.5656    0.0000 H   0  0  0  0  0  0  0  0  0  0  0  0
    5.1350   -1.0773    0.0000 H   0  0  0  0  0  0  0  0  0  0  0  0
    4.0420    4.2696    0.0000 H   0  0  0  0  0  0  0  0  0  0  0  0
    3.1951    4.0427    0.0000 H   0  0  0  0  0  0  0  0  0  0  0  0
    3.4220    3.1957    0.0000 H   0  0  0  0  0  0  0  0  0  0  0  0
    4.2690   -2.5773    0.0000 H   0  0  0  0  0  0  0  0  0  0  0  0
    1.4631   -0.9573    0.0000 H   0  0  0  0  0  0  0  0  0  0  0  0
    1.4631   -2.5773    0.0000 H   0  0  0  0  0  0  0  0  0  0  0  0
    2.3100    1.2696    0.0000 H   0  0  0  0  0  0  0  0  0  0  0  0
    1.4631    1.0427    0.0000 H   0  0  0  0  0  0  0  0  0  0  0  0
    1.6900    0.1957    0.0000 H   0  0  0  0  0  0  0  0  0  0  0  0
  1 22  1  0  0  0  0
  2 19  1  0  0  0  0
  2 24  1  0  0  0  0
  3 16  2  0  0  0  0
  4  8  1  0  0  0  0
  4 16  1  0  0  0  0
  4 27  1  0  0  0  0
  5  9  1  0  0  0  0
  5 11  2  0  0  0  0
  6 14  1  0  0  0  0
  6 16  1  0  0  0  0
  6 31  1  0  0  0  0
  7  8  1  0  0  0  0
  7  9  1  0  0  0  0
  7 12  2  0  0  0  0
  8 10  2  0  0  0  0
  9 13  2  0  0  0  0
 10 11  1  0  0  0  0
 10 25  1  0  0  0  0
 11 18  1  0  0  0  0
 12 15  1  0  0  0  0
 12 26  1  0  0  0  0
 13 17  1  0  0  0  0
 13 28  1  0  0  0  0
 14 19  2  0  0  0  0
 14 20  1  0  0  0  0
 15 17  2  0  0  0  0
 15 29  1  0  0  0  0
 17 30  1  0  0  0  0
 18 32  1  0  0  0  0
 18 33  1  0  0  0  0
 18 34  1  0  0  0  0
 19 21  1  0  0  0  0
 20 22  2  0  0  0  0
 20 35  1  0  0  0  0
 21 23  2  0  0  0  0
 21 36  1  0  0  0  0
 22 23  1  0  0  0  0
 23 37  1  0  0  0  0
 24 38  1  0  0  0  0
 24 39  1  0  0  0  0
 24 40  1  0  0  0  0
M  END
> <PUBCHEM_COMPOUND_CID>
9549305

> <PUBCHEM_COMPOUND_CANONICALIZED>
1

> <PUBCHEM_CACTVS_COMPLEXITY>
437

> <PUBCHEM_CACTVS_HBOND_ACCEPTOR>
3

> <PUBCHEM_CACTVS_HBOND_DONOR>
2

> <PUBCHEM_CACTVS_ROTATABLE_BOND>
3

> <PUBCHEM_CACTVS_SUBSKEYS>
AAADceB7MAAEAAAAAAAAAAAAAAAAAAAAAAA8YIAAAAAAAACx9AAAHgIQAAAADA6BniIzxvLIFACoAyRiVACCiCAhJyAImCA3bpiOJuLF89uFNChs1BPY6CeQwIAOACAAAAICEAAAQAAABAQgAAAAAAAAAA==

> <PUBCHEM_IUPAC_OPENEYE_NAME>
1-(5-chloro-2-methoxy-phenyl)-3-(2-methyl-4-quinolyl)urea

> <PUBCHEM_IUPAC_CAS_NAME>
1-(5-chloro-2-methoxyphenyl)-3-(2-methyl-4-quinolinyl)urea

> <PUBCHEM_IUPAC_NAME>
1-(5-chloro-2-methoxyphenyl)-3-(2-methylquinolin-4-yl)urea

> <PUBCHEM_IUPAC_SYSTEMATIC_NAME>
1-(5-chloranyl-2-methoxy-phenyl)-3-(2-methylquinolin-4-yl)urea

> <PUBCHEM_IUPAC_TRADITIONAL_NAME>
1-(5-chloro-2-methoxy-phenyl)-3-(2-methyl-4-quinolyl)urea

> <PUBCHEM_IUPAC_INCHI>
InChI=1S/C18H16ClN3O2/c1-11-9-15(13-5-3-4-6-14(13)20-11)21-18(23)22-16-10-12(19)7-8-17(16)24-2/h3-10H,1-2H3,(H2,20,21,22,23)

> <PUBCHEM_IUPAC_INCHIKEY>
YBLWOZUPHDKFOT-UHFFFAOYSA-N

> <PUBCHEM_XLOGP3_AA>
3.8

> <PUBCHEM_EXACT_MASS>
341.093

> <PUBCHEM_MOLECULAR_FORMULA>
C18H16ClN3O2

> <PUBCHEM_MOLECULAR_WEIGHT>
341.795

> <PUBCHEM_OPENEYE_CAN_SMILES>
CC1=NC2=CC=CC=C2C(=C1)NC(=O)NC3=C(C=CC(=C3)Cl)OC

> <PUBCHEM_OPENEYE_ISO_SMILES>
CC1=NC2=CC=CC=C2C(=C1)NC(=O)NC3=C(C=CC(=C3)Cl)OC

> <PUBCHEM_CACTVS_TPSA>
63.2

> <PUBCHEM_MONOISOTOPIC_WEIGHT>
341.093

> <PUBCHEM_TOTAL_CHARGE>
0

> <PUBCHEM_HEAVY_ATOM_COUNT>
24

> <PUBCHEM_ATOM_DEF_STEREO_COUNT>
0

> <PUBCHEM_ATOM_UDEF_STEREO_COUNT>
0

> <PUBCHEM_BOND_DEF_STEREO_COUNT>
0

> <PUBCHEM_BOND_UDEF_STEREO_COUNT>
0

> <PUBCHEM_ISOTOPIC_ATOM_COUNT>
0

> <PUBCHEM_COMPONENT_COUNT>
1

> <PUBCHEM_CACTVS_TAUTO_COUNT>
19

> <PUBCHEM_COORDINATE_TYPE>
1
5
255

> <PUBCHEM_BONDANNOTATIONS>
10  11  8
12  15  8
13  17  8
14  19  8
14  20  8
15  17  8
19  21  8
20  22  8
21  23  8
22  23  8
5  11  8
5  9  8
7  12  8
7  8  8
7  9  8
8  10  8
9  13  8

$$$$
9817165
  -OEChem-11021605012D

 32 35  0     0  0  0  0  0  0999 V2000
    3.4807   -1.7813    0.0000 S   0  0  0  0  0  0  0  0  0  0  0  0
    8.9237    1.0425    0.0000 N   0  0  0  0  0  0  0  0  0  0  0  0
    8.9237   -0.5670    0.0000 N   0  0  0  0  0  0  0  0  0  0  0  0
    5.3515   -0.7969    0.0000 N   0  0  0  0  0  0  0  0  0  0  0  0
    5.3515    1.2724    0.0000 N   0  0  0  0  0  0  0  0  0  0  0  0
    7.9775    0.7377    0.0000 C   0  0  0  0  0  0  0  0  0  0  0  0
    7.9775   -0.2623    0.0000 C   0  0  0  0  0  0  0  0  0  0  0  0
    9.5074    0.2377    0.0000 C   0  0  0  0  0  0  0  0  0  0  0  0
    7.1115    1.2377    0.0000 C   0  0  0  0  0  0  0  0  0  0  0  0
    6.2455    0.7377    0.0000 C   0  0  0  0  0  0  0  0  0  0  0  0
    6.2455   -0.2623    0.0000 C   0  0  0  0  0  0  0  0  0  0  0  0
    7.1115   -0.7623    0.0000 C   0  0  0  0  0  0  0  0  0  0  0  0
    9.2344    1.9930    0.0000 C   0  0  0  0  0  0  0  0  0  0  0  0
   10.5073    0.2377    0.0000 C   0  0  0  0  0  0  0  0  0  0  0  0
    4.4455   -0.2831    0.0000 C   0  0  0  0  0  0  0  0  0  0  0  0
    4.4455    0.7586    0.0000 C   0  0  0  0  0  0  0  0  0  0  0  0
    3.5814   -0.7864    0.0000 C   0  0  0  0  0  0  0  0  0  0  0  0
    2.6663   -0.3832    0.0000 C   0  0  0  0  0  0  0  0  0  0  0  0
    2.0000   -1.1289    0.0000 C   0  0  0  0  0  0  0  0  0  0  0  0
    2.5033   -1.9930    0.0000 C   0  0  0  0  0  0  0  0  0  0  0  0
    7.1115    1.8578    0.0000 H   0  0  0  0  0  0  0  0  0  0  0  0
    7.1115   -1.3822    0.0000 H   0  0  0  0  0  0  0  0  0  0  0  0
    9.8237    1.8004    0.0000 H   0  0  0  0  0  0  0  0  0  0  0  0
    9.4270    2.5823    0.0000 H   0  0  0  0  0  0  0  0  0  0  0  0
    8.6451    2.1856    0.0000 H   0  0  0  0  0  0  0  0  0  0  0  0
   10.5073   -0.3823    0.0000 H   0  0  0  0  0  0  0  0  0  0  0  0
   11.1273    0.2377    0.0000 H   0  0  0  0  0  0  0  0  0  0  0  0
   10.5073    0.8577    0.0000 H   0  0  0  0  0  0  0  0  0  0  0  0
    3.9097    1.0706    0.0000 H   0  0  0  0  0  0  0  0  0  0  0  0
    2.5350    0.2228    0.0000 H   0  0  0  0  0  0  0  0  0  0  0  0
    1.3832   -1.0665    0.0000 H   0  0  0  0  0  0  0  0  0  0  0  0
    2.2533   -2.5604    0.0000 H   0  0  0  0  0  0  0  0  0  0  0  0
  1 17  1  0  0  0  0
  1 20  1  0  0  0  0
  2  6  1  0  0  0  0
  2  8  1  0  0  0  0
  2 13  1  0  0  0  0
  3  7  1  0  0  0  0
  3  8  2  0  0  0  0
  4 11  1  0  0  0  0
  4 15  2  0  0  0  0
  5 10  1  0  0  0  0
  5 16  2  0  0  0  0
  6  7  2  0  0  0  0
  6  9  1  0  0  0  0
  7 12  1  0  0  0  0
  8 14  1  0  0  0  0
  9 10  2  0  0  0  0
  9 21  1  0  0  0  0
 10 11  1  0  0  0  0
 11 12  2  0  0  0  0
 12 22  1  0  0  0  0
 13 23  1  0  0  0  0
 13 24  1  0  0  0  0
 13 25  1  0  0  0  0
 14 26  1  0  0  0  0
 14 27  1  0  0  0  0
 14 28  1  0  0  0  0
 15 16  1  0  0  0  0
 15 17  1  0  0  0  0
 16 29  1  0  0  0  0
 17 18  2  0  0  0  0
 18 19  1  0  0  0  0
 18 30  1  0  0  0  0
 19 20  2  0  0  0  0
 19 31  1  0  0  0  0
 20 32  1  0  0  0  0
M  END
> <PUBCHEM_COMPOUND_CID>
9817165

> <PUBCHEM_COMPOUND_CANONICALIZED>
1

> <PUBCHEM_CACTVS_COMPLEXITY>
366

> <PUBCHEM_CACTVS_HBOND_ACCEPTOR>
4

> <PUBCHEM_CACTVS_HBOND_DONOR>
0

> <PUBCHEM_CACTVS_ROTATABLE_BOND>
1

> <PUBCHEM_CACTVS_SUBSKEYS>
AAADccBzgABAAAAAAAAAAAAAAAAAAWJAAAA8QAAAAAAAAFix/gAAHAQAAAAACAjFVwS/0bcMEAikATZnZACDgK0xGrBJ2Dg4dJiIaOLg2dGUJAhogALoyCcQAAAAAACAAAQAACAAAQAACAAAQAAAAAAAAA==

> <PUBCHEM_IUPAC_OPENEYE_NAME>
1,2-dimethyl-6-(2-thienyl)imidazo[4,5-g]quinoxaline

> <PUBCHEM_IUPAC_CAS_NAME>
1,2-dimethyl-6-thiophen-2-ylimidazo[4,5-g]quinoxaline

> <PUBCHEM_IUPAC_NAME>
1,2-dimethyl-6-thiophen-2-ylimidazo[4,5-g]quinoxaline

> <PUBCHEM_IUPAC_SYSTEMATIC_NAME>
1,2-dimethyl-6-thiophen-2-yl-imidazo[4,5-g]quinoxaline

> <PUBCHEM_IUPAC_TRADITIONAL_NAME>
1,2-dimethyl-6-(2-thienyl)imidazo[4,5-g]quinoxaline

> <PUBCHEM_IUPAC_INCHI>
InChI=1S/C15H12N4S/c1-9-17-12-6-11-10(7-14(12)19(9)2)16-8-13(18-11)15-4-3-5-20-15/h3-8H,1-2H3

> <PUBCHEM_IUPAC_INCHIKEY>
ZGDACLBJJXLKJY-UHFFFAOYSA-N

> <PUBCHEM_XLOGP3_AA>
2.5

> <PUBCHEM_EXACT_MASS>
280.078

> <PUBCHEM_MOLECULAR_FORMULA>
C15H12N4S

> <PUBCHEM_MOLECULAR_WEIGHT>
280.349

> <PUBCHEM_OPENEYE_CAN_SMILES>
CC1=NC2=C(N1C)C=C3C(=C2)N=C(C=N3)C4=CC=CS4

> <PUBCHEM_OPENEYE_ISO_SMILES>
CC1=NC2=C(N1C)C=C3C(=C2)N=C(C=N3)C4=CC=CS4

> <PUBCHEM_CACTVS_TPSA>
71.8

> <PUBCHEM_MONOISOTOPIC_WEIGHT>
280.078

> <PUBCHEM_TOTAL_CHARGE>
0

> <PUBCHEM_HEAVY_ATOM_COUNT>
20

> <PUBCHEM_ATOM_DEF_STEREO_COUNT>
0

> <PUBCHEM_ATOM_UDEF_STEREO_COUNT>
0

> <PUBCHEM_BOND_DEF_STEREO_COUNT>
0

> <PUBCHEM_BOND_UDEF_STEREO_COUNT>
0

> <PUBCHEM_ISOTOPIC_ATOM_COUNT>
0

> <PUBCHEM_COMPONENT_COUNT>
1

> <PUBCHEM_CACTVS_TAUTO_COUNT>
1

> <PUBCHEM_COORDINATE_TYPE>
1
5
255

> <PUBCHEM_BONDANNOTATIONS>
1  17  8
1  20  8
10  11  8
11  12  8
15  16  8
17  18  8
18  19  8
19  20  8
2  6  8
2  8  8
3  7  8
3  8  8
4  11  8
4  15  8
5  10  8
5  16  8
6  7  8
6  9  8
7  12  8
9  10  8

$$$$
5329098
  -OEChem-11021605012D

 32 34  0     0  0  0  0  0  0999 V2000
    6.2619   -1.1736    0.0000 O   0  0  0  0  0  0  0  0  0  0  0  0
    6.7094    0.1175    0.0000 N   0  0  0  0  0  0  0  0  0  0  0  0
    4.6783   -1.9783    0.0000 N   0  0  0  0  0  0  0  0  0  0  0  0
    4.6783   -0.3688    0.0000 C   0  0  0  0  0  0  0  0  0  0  0  0
    5.9674    0.7879    0.0000 C   0  0  0  0  0  0  0  0  0  0  0  0
    3.7320   -0.6736    0.0000 C   0  0  0  0  0  0  0  0  0  0  0  0
    6.3758    1.7007    0.0000 C   0  0  0  0  0  0  0  0  0  0  0  0
    4.9889    0.5817    0.0000 C   0  0  0  0  0  0  0  0  0  0  0  0
    3.7320   -1.6736    0.0000 C   0  0  0  0  0  0  0  0  0  0  0  0
    7.5763    0.6160    0.0000 C   0  0  0  0  0  0  0  0  0  0  0  0
    5.2619   -1.1736    0.0000 C   0  0  0  0  0  0  0  0  0  0  0  0
    7.3701    1.5945    0.0000 C   0  0  0  0  0  0  0  0  0  0  0  0
    2.8660   -0.1736    0.0000 C   0  0  0  0  0  0  0  0  0  0  0  0
    2.8660   -2.1736    0.0000 C   0  0  0  0  0  0  0  0  0  0  0  0
    5.8772    2.5676    0.0000 C   0  0  0  0  0  0  0  0  0  0  0  0
    8.4892    0.2077    0.0000 C   0  0  0  0  0  0  0  0  0  0  0  0
    2.0000   -0.6736    0.0000 C   0  0  0  0  0  0  0  0  0  0  0  0
    2.0000   -1.6736    0.0000 C   0  0  0  0  0  0  0  0  0  0  0  0
    4.5749    1.0432    0.0000 H   0  0  0  0  0  0  0  0  0  0  0  0
    6.6436   -0.4990    0.0000 H   0  0  0  0  0  0  0  0  0  0  0  0
    7.7858    2.0545    0.0000 H   0  0  0  0  0  0  0  0  0  0  0  0
    4.8709   -2.5676    0.0000 H   0  0  0  0  0  0  0  0  0  0  0  0
    2.8660    0.4464    0.0000 H   0  0  0  0  0  0  0  0  0  0  0  0
    2.8660   -2.7936    0.0000 H   0  0  0  0  0  0  0  0  0  0  0  0
    6.4147    2.8767    0.0000 H   0  0  0  0  0  0  0  0  0  0  0  0
    5.5682    3.1051    0.0000 H   0  0  0  0  0  0  0  0  0  0  0  0
    5.3398    2.2586    0.0000 H   0  0  0  0  0  0  0  0  0  0  0  0
    8.2360   -0.3583    0.0000 H   0  0  0  0  0  0  0  0  0  0  0  0
    9.0551   -0.0455    0.0000 H   0  0  0  0  0  0  0  0  0  0  0  0
    8.7423    0.7736    0.0000 H   0  0  0  0  0  0  0  0  0  0  0  0
    1.4631   -0.3636    0.0000 H   0  0  0  0  0  0  0  0  0  0  0  0
    1.4631   -1.9836    0.0000 H   0  0  0  0  0  0  0  0  0  0  0  0
  1 11  2  0  0  0  0
  2  5  1  0  0  0  0
  2 10  1  0  0  0  0
  2 20  1  0  0  0  0
  3  9  1  0  0  0  0
  3 11  1  0  0  0  0
  3 22  1  0  0  0  0
  4  6  1  0  0  0  0
  4  8  2  0  0  0  0
  4 11  1  0  0  0  0
  5  7  2  0  0  0  0
  5  8  1  0  0  0  0
  6  9  1  0  0  0  0
  6 13  2  0  0  0  0
  7 12  1  0  0  0  0
  7 15  1  0  0  0  0
  8 19  1  0  0  0  0
  9 14  2  0  0  0  0
 10 12  2  0  0  0  0
 10 16  1  0  0  0  0
 12 21  1  0  0  0  0
 13 17  1  0  0  0  0
 13 23  1  0  0  0  0
 14 18  1  0  0  0  0
 14 24  1  0  0  0  0
 15 25  1  0  0  0  0
 15 26  1  0  0  0  0
 15 27  1  0  0  0  0
 16 28  1  0  0  0  0
 16 29  1  0  0  0  0
 16 30  1  0  0  0  0
 17 18  2  0  0  0  0
 17 31  1  0  0  0  0
 18 32  1  0  0  0  0
M  END
> <PUBCHEM_COMPOUND_CID>
5329098

> <PUBCHEM_COMPOUND_CANONICALIZED>
1

> <PUBCHEM_CACTVS_COMPLEXITY>
377

> <PUBCHEM_CACTVS_HBOND_ACCEPTOR>
1

> <PUBCHEM_CACTVS_HBOND_DONOR>
2

> <PUBCHEM_CACTVS_ROTATABLE_BOND>
1

> <PUBCHEM_CACTVS_SUBSKEYS>
AAADccBzIAAAAAAAAAAAAAAAAAAAAWLAAAAwAAAAAAAAAFgBwAAAHgAQAAAADAiBngAywJLJkACoAyVyVACCgCAhAiAImSEwZNgIIPLAlZGEIAhglADIyYcciICOAAAAAAACAAAAAAAAAAQAAAAAAAAAAA==

> <PUBCHEM_IUPAC_OPENEYE_NAME>
(3Z)-3-[(3,5-dimethyl-1H-pyrrol-2-yl)methylene]indolin-2-one

> <PUBCHEM_IUPAC_CAS_NAME>
(3Z)-3-[(3,5-dimethyl-1H-pyrrol-2-yl)methylidene]-1H-indol-2-one

> <PUBCHEM_IUPAC_NAME>
(3Z)-3-[(3,5-dimethyl-1H-pyrrol-2-yl)methylidene]-1H-indol-2-one

> <PUBCHEM_IUPAC_SYSTEMATIC_NAME>
(3Z)-3-[(3,5-dimethyl-1H-pyrrol-2-yl)methylidene]-1H-indol-2-one

> <PUBCHEM_IUPAC_TRADITIONAL_NAME>
(3Z)-3-[(3,5-dimethyl-1H-pyrrol-2-yl)methylene]oxindole

> <PUBCHEM_IUPAC_INCHI>
InChI=1S/C15H14N2O/c1-9-7-10(2)16-14(9)8-12-11-5-3-4-6-13(11)17-15(12)18/h3-8,16H,1-2H3,(H,17,18)/b12-8-

> <PUBCHEM_IUPAC_INCHIKEY>
WUWDLXZGHZSWQZ-WQLSENKSSA-N

> <PUBCHEM_XLOGP3_AA>
2.5

> <PUBCHEM_EXACT_MASS>
238.111

> <PUBCHEM_MOLECULAR_FORMULA>
C15H14N2O

> <PUBCHEM_MOLECULAR_WEIGHT>
238.29

> <PUBCHEM_OPENEYE_CAN_SMILES>
CC1=CC(=C(N1)C=C2C3=CC=CC=C3NC2=O)C

> <PUBCHEM_OPENEYE_ISO_SMILES>
CC1=CC(=C(N1)/C=C\2/C3=CC=CC=C3NC2=O)C

> <PUBCHEM_CACTVS_TPSA>
44.9

> <PUBCHEM_MONOISOTOPIC_WEIGHT>
238.111

> <PUBCHEM_TOTAL_CHARGE>
0

> <PUBCHEM_HEAVY_ATOM_COUNT>
18

> <PUBCHEM_ATOM_DEF_STEREO_COUNT>
0

> <PUBCHEM_ATOM_UDEF_STEREO_COUNT>
0

> <PUBCHEM_BOND_DEF_STEREO_COUNT>
1

> <PUBCHEM_BOND_UDEF_STEREO_COUNT>
0

> <PUBCHEM_ISOTOPIC_ATOM_COUNT>
0

> <PUBCHEM_COMPONENT_COUNT>
1

> <PUBCHEM_CACTVS_TAUTO_COUNT>
16

> <PUBCHEM_COORDINATE_TYPE>
1
5
255

> <PUBCHEM_BONDANNOTATIONS>
10  12  8
13  17  8
14  18  8
17  18  8
2  10  8
2  5  8
5  7  8
6  13  8
6  9  8
7  12  8
9  14  8

$$$$
766949
  -OEChem-11021605012D

 40 43  0     0  0  0  0  0  0999 V2000
    2.1953   -1.2200    0.0000 S   0  0  0  0  0  0  0  0  0  0  0  0
    4.7320    0.3636    0.0000 O   0  0  0  0  0  0  0  0  0  0  0  0
    3.0000    0.3636    0.0000 N   0  0  0  0  0  0  0  0  0  0  0  0
    5.7058   -0.5987    0.0000 N   0  0  0  0  0  0  0  0  0  0  0  0
    3.5000   -3.8983    0.0000 C   0  0  0  0  0  0  0  0  0  0  0  0
    2.5000   -3.8983    0.0000 C   0  0  0  0  0  0  0  0  0  0  0  0
    4.0000   -3.0322    0.0000 C   0  0  0  0  0  0  0  0  0  0  0  0
    2.0000   -3.0322    0.0000 C   0  0  0  0  0  0  0  0  0  0  0  0
    3.5000   -2.1662    0.0000 C   0  0  0  0  0  0  0  0  0  0  0  0
    2.5000   -2.1662    0.0000 C   0  0  0  0  0  0  0  0  0  0  0  0
    3.8047   -1.2200    0.0000 C   0  0  0  0  0  0  0  0  0  0  0  0
    3.0000   -0.6364    0.0000 C   0  0  0  0  0  0  0  0  0  0  0  0
    3.8660    0.8636    0.0000 C   0  0  0  0  0  0  0  0  0  0  0  0
    3.8660    1.8636    0.0000 C   0  0  0  0  0  0  0  0  0  0  0  0
    4.7552   -0.9093    0.0000 C   0  0  0  0  0  0  0  0  0  0  0  0
    4.7320    2.3636    0.0000 C   0  0  0  0  0  0  0  0  0  0  0  0
    4.7320    3.3636    0.0000 C   0  0  0  0  0  0  0  0  0  0  0  0
    3.0000    2.3636    0.0000 C   0  0  0  0  0  0  0  0  0  0  0  0
    5.6260    1.8290    0.0000 C   0  0  0  0  0  0  0  0  0  0  0  0
    3.8660    3.8636    0.0000 C   0  0  0  0  0  0  0  0  0  0  0  0
    3.0000    3.3636    0.0000 C   0  0  0  0  0  0  0  0  0  0  0  0
    5.6260    3.8983    0.0000 C   0  0  0  0  0  0  0  0  0  0  0  0
    6.5321    2.3428    0.0000 C   0  0  0  0  0  0  0  0  0  0  0  0
    6.5321    3.3844    0.0000 C   0  0  0  0  0  0  0  0  0  0  0  0
    3.3923   -4.5088    0.0000 H   0  0  0  0  0  0  0  0  0  0  0  0
    4.0826   -4.1103    0.0000 H   0  0  0  0  0  0  0  0  0  0  0  0
    1.9174   -4.1103    0.0000 H   0  0  0  0  0  0  0  0  0  0  0  0
    2.6077   -4.5088    0.0000 H   0  0  0  0  0  0  0  0  0  0  0  0
    4.4750   -3.4308    0.0000 H   0  0  0  0  0  0  0  0  0  0  0  0
    4.4750   -2.6337    0.0000 H   0  0  0  0  0  0  0  0  0  0  0  0
    1.5250   -2.6337    0.0000 H   0  0  0  0  0  0  0  0  0  0  0  0
    1.5250   -3.4308    0.0000 H   0  0  0  0  0  0  0  0  0  0  0  0
    2.4631    0.6736    0.0000 H   0  0  0  0  0  0  0  0  0  0  0  0
    2.4631    2.0536    0.0000 H   0  0  0  0  0  0  0  0  0  0  0  0
    5.6188    1.2090    0.0000 H   0  0  0  0  0  0  0  0  0  0  0  0
    3.8660    4.4836    0.0000 H   0  0  0  0  0  0  0  0  0  0  0  0
    2.4631    3.6736    0.0000 H   0  0  0  0  0  0  0  0  0  0  0  0
    5.6188    4.5182    0.0000 H   0  0  0  0  0  0  0  0  0  0  0  0
    7.0678    2.0307    0.0000 H   0  0  0  0  0  0  0  0  0  0  0  0
    7.0678    3.6965    0.0000 H   0  0  0  0  0  0  0  0  0  0  0  0
  1 10  1  0  0  0  0
  1 12  1  0  0  0  0
  2 13  2  0  0  0  0
  3 12  1  0  0  0  0
  3 13  1  0  0  0  0
  3 33  1  0  0  0  0
  4 15  3  0  0  0  0
  5  6  1  0  0  0  0
  5  7  1  0  0  0  0
  5 25  1  0  0  0  0
  5 26  1  0  0  0  0
  6  8  1  0  0  0  0
  6 27  1  0  0  0  0
  6 28  1  0  0  0  0
  7  9  1  0  0  0  0
  7 29  1  0  0  0  0
  7 30  1  0  0  0  0
  8 10  1  0  0  0  0
  8 31  1  0  0  0  0
  8 32  1  0  0  0  0
  9 10  2  0  0  0  0
  9 11  1  0  0  0  0
 11 12  2  0  0  0  0
 11 15  1  0  0  0  0
 13 14  1  0  0  0  0
 14 16  1  0  0  0  0
 14 18  2  0  0  0  0
 16 17  1  0  0  0  0
 16 19  2  0  0  0  0
 17 20  1  0  0  0  0
 17 22  2  0  0  0  0
 18 21  1  0  0  0  0
 18 34  1  0  0  0  0
 19 23  1  0  0  0  0
 19 35  1  0  0  0  0
 20 21  2  0  0  0  0
 20 36  1  0  0  0  0
 21 37  1  0  0  0  0
 22 24  1  0  0  0  0
 22 38  1  0  0  0  0
 23 24  2  0  0  0  0
 23 39  1  0  0  0  0
 24 40  1  0  0  0  0
M  END
> <PUBCHEM_COMPOUND_CID>
766949

> <PUBCHEM_COMPOUND_CANONICALIZED>
1

> <PUBCHEM_CACTVS_COMPLEXITY>
527

> <PUBCHEM_CACTVS_HBOND_ACCEPTOR>
3

> <PUBCHEM_CACTVS_HBOND_DONOR>
1

> <PUBCHEM_CACTVS_ROTATABLE_BOND>
2

> <PUBCHEM_CACTVS_SUBSKEYS>
AAADceB7IABAAAAAAAAAAAAAAAAAASAAAAAwYMAAAAAAAEjB1AAAHgQQAAAADACB2AAwgcLAAAicBiFSUACjAIBlCBkIiBEARMgIoDLglZGEIQhghADoyY8YiMCOgAACAAAQAAAAAAQAACgAAAAAAAAAAA==

> <PUBCHEM_IUPAC_OPENEYE_NAME>
N-(3-cyano-4,5,6,7-tetrahydrobenzothiophen-2-yl)naphthalene-1-carboxamide

> <PUBCHEM_IUPAC_CAS_NAME>
N-(3-cyano-4,5,6,7-tetrahydro-1-benzothiophen-2-yl)-1-naphthalenecarboxamide

> <PUBCHEM_IUPAC_NAME>
N-(3-cyano-4,5,6,7-tetrahydro-1-benzothiophen-2-yl)naphthalene-1-carboxamide

> <PUBCHEM_IUPAC_SYSTEMATIC_NAME>
N-(3-cyano-4,5,6,7-tetrahydro-1-benzothiophen-2-yl)naphthalene-1-carboxamide

> <PUBCHEM_IUPAC_TRADITIONAL_NAME>
N-(3-cyano-4,5,6,7-tetrahydrobenzothiophen-2-yl)-1-naphthamide

> <PUBCHEM_IUPAC_INCHI>
InChI=1S/C20H16N2OS/c21-12-17-15-9-3-4-11-18(15)24-20(17)22-19(23)16-10-5-7-13-6-1-2-8-14(13)16/h1-2,5-8,10H,3-4,9,11H2,(H,22,23)

> <PUBCHEM_IUPAC_INCHIKEY>
WQGDQGAFSDMBLA-UHFFFAOYSA-N

> <PUBCHEM_XLOGP3_AA>
5.5

> <PUBCHEM_EXACT_MASS>
332.098

> <PUBCHEM_MOLECULAR_FORMULA>
C20H16N2OS

> <PUBCHEM_MOLECULAR_WEIGHT>
332.421

> <PUBCHEM_OPENEYE_CAN_SMILES>
C1CCC2=C(C1)C(=C(S2)NC(=O)C3=CC=CC4=CC=CC=C43)C#N

> <PUBCHEM_OPENEYE_ISO_SMILES>
C1CCC2=C(C1)C(=C(S2)NC(=O)C3=CC=CC4=CC=CC=C43)C#N

> <PUBCHEM_CACTVS_TPSA>
81.1

> <PUBCHEM_MONOISOTOPIC_WEIGHT>
332.098

> <PUBCHEM_TOTAL_CHARGE>
0

> <PUBCHEM_HEAVY_ATOM_COUNT>
24

> <PUBCHEM_ATOM_DEF_STEREO_COUNT>
0

> <PUBCHEM_ATOM_UDEF_STEREO_COUNT>
0

> <PUBCHEM_BOND_DEF_STEREO_COUNT>
0

> <PUBCHEM_BOND_UDEF_STEREO_COUNT>
0

> <PUBCHEM_ISOTOPIC_ATOM_COUNT>
0

> <PUBCHEM_COMPONENT_COUNT>
1

> <PUBCHEM_CACTVS_TAUTO_COUNT>
3

> <PUBCHEM_COORDINATE_TYPE>
1
5
255

> <PUBCHEM_BONDANNOTATIONS>
1  10  8
1  12  8
11  12  8
14  16  8
14  18  8
16  17  8
16  19  8
17  20  8
17  22  8
18  21  8
19  23  8
20  21  8
22  24  8
23  24  8
9  10  8
9  11  8

$$$$
9884685
  -OEChem-11021605012D

 42 46  0     0  0  0  0  0  0999 V2000
    7.2458    4.2383    0.0000 O   0  0  0  0  0  0  0  0  0  0  0  0
    4.5274    1.7301    0.0000 O   0  0  0  0  0  0  0  0  0  0  0  0
    7.4400   -3.7759    0.0000 O   0  0  0  0  0  0  0  0  0  0  0  0
    6.6498    2.3291    0.0000 N   0  0  0  0  0  0  0  0  0  0  0  0
    7.0547    0.6059    0.0000 N   0  0  0  0  0  0  0  0  0  0  0  0
    5.7123   -0.5935    0.0000 N   0  0  0  0  0  0  0  0  0  0  0  0
    2.7029    1.3746    0.0000 N   0  0  0  0  0  0  0  0  0  0  0  0
    5.9721    3.0645    0.0000 C   0  0  0  0  0  0  0  0  0  0  0  0
    7.6255    2.5483    0.0000 C   0  0  0  0  0  0  0  0  0  0  0  0
    6.3518    1.3746    0.0000 C   0  0  0  0  0  0  0  0  0  0  0  0
    6.2701    4.0191    0.0000 C   0  0  0  0  0  0  0  0  0  0  0  0
    7.9235    3.5029    0.0000 C   0  0  0  0  0  0  0  0  0  0  0  0
    5.3364    1.1423    0.0000 C   0  0  0  0  0  0  0  0  0  0  0  0
    5.0274    0.1913    0.0000 C   0  0  0  0  0  0  0  0  0  0  0  0
    4.0274    0.1913    0.0000 C   0  0  0  0  0  0  0  0  0  0  0  0
    6.7328   -0.3848    0.0000 C   0  0  0  0  0  0  0  0  0  0  0  0
    3.7183    1.1423    0.0000 C   0  0  0  0  0  0  0  0  0  0  0  0
    7.3991   -1.1305    0.0000 C   0  0  0  0  0  0  0  0  0  0  0  0
    3.3424   -0.5935    0.0000 C   0  0  0  0  0  0  0  0  0  0  0  0
    2.3219   -0.3848    0.0000 C   0  0  0  0  0  0  0  0  0  0  0  0
    7.0864   -2.0803    0.0000 C   0  0  0  0  0  0  0  0  0  0  0  0
    8.3780   -0.9263    0.0000 C   0  0  0  0  0  0  0  0  0  0  0  0
    2.0000    0.6059    0.0000 C   0  0  0  0  0  0  0  0  0  0  0  0
    7.7527   -2.8261    0.0000 C   0  0  0  0  0  0  0  0  0  0  0  0
    9.0443   -1.6721    0.0000 C   0  0  0  0  0  0  0  0  0  0  0  0
    8.7316   -2.6219    0.0000 C   0  0  0  0  0  0  0  0  0  0  0  0
    5.4214    3.3492    0.0000 H   0  0  0  0  0  0  0  0  0  0  0  0
    5.5961    2.5715    0.0000 H   0  0  0  0  0  0  0  0  0  0  0  0
    7.6543    1.9290    0.0000 H   0  0  0  0  0  0  0  0  0  0  0  0
    8.2404    2.4692    0.0000 H   0  0  0  0  0  0  0  0  0  0  0  0
    6.2413    4.6384    0.0000 H   0  0  0  0  0  0  0  0  0  0  0  0
    5.6552    4.0982    0.0000 H   0  0  0  0  0  0  0  0  0  0  0  0
    8.4742    3.2182    0.0000 H   0  0  0  0  0  0  0  0  0  0  0  0
    8.2995    3.9959    0.0000 H   0  0  0  0  0  0  0  0  0  0  0  0
    3.5408   -1.1809    0.0000 H   0  0  0  0  0  0  0  0  0  0  0  0
    1.9088   -0.8471    0.0000 H   0  0  0  0  0  0  0  0  0  0  0  0
    6.4795   -2.2069    0.0000 H   0  0  0  0  0  0  0  0  0  0  0  0
    8.5719   -0.3374    0.0000 H   0  0  0  0  0  0  0  0  0  0  0  0
    1.3940    0.7371    0.0000 H   0  0  0  0  0  0  0  0  0  0  0  0
    9.6512   -1.5455    0.0000 H   0  0  0  0  0  0  0  0  0  0  0  0
    9.1447   -3.0843    0.0000 H   0  0  0  0  0  0  0  0  0  0  0  0
    7.8531   -4.2383    0.0000 H   0  0  0  0  0  0  0  0  0  0  0  0
  1 11  1  0  0  0  0
  1 12  1  0  0  0  0
  2 13  1  0  0  0  0
  2 17  1  0  0  0  0
  3 24  1  0  0  0  0
  3 42  1  0  0  0  0
  4  8  1  0  0  0  0
  4  9  1  0  0  0  0
  4 10  1  0  0  0  0
  5 10  2  0  0  0  0
  5 16  1  0  0  0  0
  6 14  1  0  0  0  0
  6 16  2  0  0  0  0
  7 17  1  0  0  0  0
  7 23  2  0  0  0  0
  8 11  1  0  0  0  0
  8 27  1  0  0  0  0
  8 28  1  0  0  0  0
  9 12  1  0  0  0  0
  9 29  1  0  0  0  0
  9 30  1  0  0  0  0
 10 13  1  0  0  0  0
 11 31  1  0  0  0  0
 11 32  1  0  0  0  0
 12 33  1  0  0  0  0
 12 34  1  0  0  0  0
 13 14  2  0  0  0  0
 14 15  1  0  0  0  0
 15 17  2  0  0  0  0
 15 19  1  0  0  0  0
 16 18  1  0  0  0  0
 18 21  2  0  0  0  0
 18 22  1  0  0  0  0
 19 20  2  0  0  0  0
 19 35  1  0  0  0  0
 20 23  1  0  0  0  0
 20 36  1  0  0  0  0
 21 24  1  0  0  0  0
 21 37  1  0  0  0  0
 22 25  2  0  0  0  0
 22 38  1  0  0  0  0
 23 39  1  0  0  0  0
 24 26  2  0  0  0  0
 25 26  1  0  0  0  0
 25 40  1  0  0  0  0
 26 41  1  0  0  0  0
M  END
> <PUBCHEM_COMPOUND_CID>
9884685

> <PUBCHEM_COMPOUND_CANONICALIZED>
1

> <PUBCHEM_CACTVS_COMPLEXITY>
489

> <PUBCHEM_CACTVS_HBOND_ACCEPTOR>
7

> <PUBCHEM_CACTVS_HBOND_DONOR>
1

> <PUBCHEM_CACTVS_ROTATABLE_BOND>
2

> <PUBCHEM_CACTVS_SUBSKEYS>
AAADceB7sAAAAAAAAAAAAAAAAAAAASAAAAA8WLEAAAAAAFgB/gAAHgAACAAADAzhnwY99vcIFkCoA7d3dASCiCk/YqAJ2CG/bNiOLvrG/fuPfajuxhvY+ee82RIOAAABAAAAAAAAAAIAAAAAAAAAAAAAAA==

> <PUBCHEM_IUPAC_OPENEYE_NAME>
3-(4-morpholinopyrido[2,3]furo[2,4-b]pyrimidin-2-yl)phenol

> <PUBCHEM_IUPAC_CAS_NAME>
3-[4-(4-morpholinyl)-2-pyrido[2,3]furo[2,4-b]pyrimidinyl]phenol

> <PUBCHEM_IUPAC_NAME>
3-(4-morpholin-4-ylpyrido[2,3]furo[2,4-b]pyrimidin-2-yl)phenol

> <PUBCHEM_IUPAC_SYSTEMATIC_NAME>
3-(4-morpholin-4-ylpyrido[2,3]furo[2,4-b]pyrimidin-2-yl)phenol

> <PUBCHEM_IUPAC_TRADITIONAL_NAME>
3-(4-morpholinopyrido[2,3]furo[2,4-b]pyrimidin-2-yl)phenol

> <PUBCHEM_IUPAC_INCHI>
InChI=1S/C19H16N4O3/c24-13-4-1-3-12(11-13)17-21-15-14-5-2-6-20-19(14)26-16(15)18(22-17)23-7-9-25-10-8-23/h1-6,11,24H,7-10H2

> <PUBCHEM_IUPAC_INCHIKEY>
TUVCWJQQGGETHL-UHFFFAOYSA-N

> <PUBCHEM_XLOGP3_AA>
2.7

> <PUBCHEM_EXACT_MASS>
348.122

> <PUBCHEM_MOLECULAR_FORMULA>
C19H16N4O3

> <PUBCHEM_MOLECULAR_WEIGHT>
348.362

> <PUBCHEM_OPENEYE_CAN_SMILES>
C1COCCN1C2=NC(=NC3=C2OC4=C3C=CC=N4)C5=CC(=CC=C5)O

> <PUBCHEM_OPENEYE_ISO_SMILES>
C1COCCN1C2=NC(=NC3=C2OC4=C3C=CC=N4)C5=CC(=CC=C5)O

> <PUBCHEM_CACTVS_TPSA>
84.5

> <PUBCHEM_MONOISOTOPIC_WEIGHT>
348.122

> <PUBCHEM_TOTAL_CHARGE>
0

> <PUBCHEM_HEAVY_ATOM_COUNT>
26

> <PUBCHEM_ATOM_DEF_STEREO_COUNT>
0

> <PUBCHEM_ATOM_UDEF_STEREO_COUNT>
0

> <PUBCHEM_BOND_DEF_STEREO_COUNT>
0

> <PUBCHEM_BOND_UDEF_STEREO_COUNT>
0

> <PUBCHEM_ISOTOPIC_ATOM_COUNT>
0

> <PUBCHEM_COMPONENT_COUNT>
1

> <PUBCHEM_CACTVS_TAUTO_COUNT>
3

> <PUBCHEM_COORDINATE_TYPE>
1
5
255

> <PUBCHEM_BONDANNOTATIONS>
10  13  8
13  14  8
14  15  8
15  17  8
15  19  8
18  21  8
18  22  8
19  20  8
2  13  8
2  17  8
20  23  8
21  24  8
22  25  8
24  26  8
25  26  8
5  10  8
5  16  8
6  14  8
6  16  8
7  17  8
7  23  8

$$$$
11772958
  -OEChem-11021605012D

 49 52  0     0  0  0  0  0  0999 V2000
    6.2853    2.8742    0.0000 S   0  0  0  0  0  0  0  0  0  0  0  0
    5.3147   -2.6203    0.0000 O   0  0  0  0  0  0  0  0  0  0  0  0
    3.5827   -4.6203    0.0000 N   0  0  0  0  0  0  0  0  0  0  0  0
    5.3147    1.3797    0.0000 N   0  0  0  0  0  0  0  0  0  0  0  0
    7.0943    1.4730    0.0000 N   0  0  0  0  0  0  0  0  0  0  0  0
    2.6691   -4.2136    0.0000 C   0  0  0  0  0  0  0  0  0  0  0  0
    3.4782   -5.6148    0.0000 C   0  0  0  0  0  0  0  0  0  0  0  0
    2.0000   -4.9567    0.0000 C   0  0  0  0  0  0  0  0  0  0  0  0
    2.5000   -5.8228    0.0000 C   0  0  0  0  0  0  0  0  0  0  0  0
    4.4487   -4.1203    0.0000 C   0  0  0  0  0  0  0  0  0  0  0  0
    4.4487   -3.1203    0.0000 C   0  0  0  0  0  0  0  0  0  0  0  0
    5.3147   -1.6203    0.0000 C   0  0  0  0  0  0  0  0  0  0  0  0
    6.1808   -1.1203    0.0000 C   0  0  0  0  0  0  0  0  0  0  0  0
    4.4487   -1.1203    0.0000 C   0  0  0  0  0  0  0  0  0  0  0  0
    5.3147    0.3797    0.0000 C   0  0  0  0  0  0  0  0  0  0  0  0
    6.1808   -0.1203    0.0000 C   0  0  0  0  0  0  0  0  0  0  0  0
    4.4487   -0.1203    0.0000 C   0  0  0  0  0  0  0  0  0  0  0  0
    6.1808    1.8797    0.0000 C   0  0  0  0  0  0  0  0  0  0  0  0
    7.2634    3.0821    0.0000 C   0  0  0  0  0  0  0  0  0  0  0  0
    7.6702    3.9957    0.0000 C   0  0  0  0  0  0  0  0  0  0  0  0
    7.7634    2.2161    0.0000 C   0  0  0  0  0  0  0  0  0  0  0  0
    8.6647    4.1002    0.0000 C   0  0  0  0  0  0  0  0  0  0  0  0
    7.0824    4.8047    0.0000 C   0  0  0  0  0  0  0  0  0  0  0  0
    9.0714    5.0137    0.0000 C   0  0  0  0  0  0  0  0  0  0  0  0
    7.4891    5.7182    0.0000 C   0  0  0  0  0  0  0  0  0  0  0  0
    8.4836    5.8228    0.0000 C   0  0  0  0  0  0  0  0  0  0  0  0
    2.9791   -3.6766    0.0000 H   0  0  0  0  0  0  0  0  0  0  0  0
    2.1675   -3.8492    0.0000 H   0  0  0  0  0  0  0  0  0  0  0  0
    3.5430   -6.2314    0.0000 H   0  0  0  0  0  0  0  0  0  0  0  0
    4.0982   -5.6148    0.0000 H   0  0  0  0  0  0  0  0  0  0  0  0
    1.9336   -6.0749    0.0000 H   0  0  0  0  0  0  0  0  0  0  0  0
    2.6916   -6.4124    0.0000 H   0  0  0  0  0  0  0  0  0  0  0  0
    1.5851   -4.4960    0.0000 H   0  0  0  0  0  0  0  0  0  0  0  0
    1.4984   -5.3212    0.0000 H   0  0  0  0  0  0  0  0  0  0  0  0
    4.6608   -4.7029    0.0000 H   0  0  0  0  0  0  0  0  0  0  0  0
    5.0593   -4.0127    0.0000 H   0  0  0  0  0  0  0  0  0  0  0  0
    4.2366   -2.5377    0.0000 H   0  0  0  0  0  0  0  0  0  0  0  0
    3.8381   -3.2280    0.0000 H   0  0  0  0  0  0  0  0  0  0  0  0
    6.7177   -1.4303    0.0000 H   0  0  0  0  0  0  0  0  0  0  0  0
    3.9118   -1.4303    0.0000 H   0  0  0  0  0  0  0  0  0  0  0  0
    6.7177    0.1897    0.0000 H   0  0  0  0  0  0  0  0  0  0  0  0
    3.9118    0.1897    0.0000 H   0  0  0  0  0  0  0  0  0  0  0  0
    4.7778    1.6897    0.0000 H   0  0  0  0  0  0  0  0  0  0  0  0
    8.3800    2.1513    0.0000 H   0  0  0  0  0  0  0  0  0  0  0  0
    9.0291    3.5986    0.0000 H   0  0  0  0  0  0  0  0  0  0  0  0
    6.4658    4.7399    0.0000 H   0  0  0  0  0  0  0  0  0  0  0  0
    9.6880    5.0785    0.0000 H   0  0  0  0  0  0  0  0  0  0  0  0
    7.1247    6.2198    0.0000 H   0  0  0  0  0  0  0  0  0  0  0  0
    8.7358    6.3892    0.0000 H   0  0  0  0  0  0  0  0  0  0  0  0
  1 18  1  0  0  0  0
  1 19  1  0  0  0  0
  2 11  1  0  0  0  0
  2 12  1  0  0  0  0
  3  6  1  0  0  0  0
  3  7  1  0  0  0  0
  3 10  1  0  0  0  0
  4 15  1  0  0  0  0
  4 18  1  0  0  0  0
  4 43  1  0  0  0  0
  5 18  2  0  0  0  0
  5 21  1  0  0  0  0
  6  8  1  0  0  0  0
  6 27  1  0  0  0  0
  6 28  1  0  0  0  0
  7  9  1  0  0  0  0
  7 29  1  0  0  0  0
  7 30  1  0  0  0  0
  8  9  1  0  0  0  0
  8 33  1  0  0  0  0
  8 34  1  0  0  0  0
  9 31  1  0  0  0  0
  9 32  1  0  0  0  0
 10 11  1  0  0  0  0
 10 35  1  0  0  0  0
 10 36  1  0  0  0  0
 11 37  1  0  0  0  0
 11 38  1  0  0  0  0
 12 13  2  0  0  0  0
 12 14  1  0  0  0  0
 13 16  1  0  0  0  0
 13 39  1  0  0  0  0
 14 17  2  0  0  0  0
 14 40  1  0  0  0  0
 15 16  2  0  0  0  0
 15 17  1  0  0  0  0
 16 41  1  0  0  0  0
 17 42  1  0  0  0  0
 19 20  1  0  0  0  0
 19 21  2  0  0  0  0
 20 22  2  0  0  0  0
 20 23  1  0  0  0  0
 21 44  1  0  0  0  0
 22 24  1  0  0  0  0
 22 45  1  0  0  0  0
 23 25  2  0  0  0  0
 23 46  1  0  0  0  0
 24 26  2  0  0  0  0
 24 47  1  0  0  0  0
 25 26  1  0  0  0  0
 25 48  1  0  0  0  0
 26 49  1  0  0  0  0
M  END
> <PUBCHEM_COMPOUND_CID>
11772958

> <PUBCHEM_COMPOUND_CANONICALIZED>
1

> <PUBCHEM_CACTVS_COMPLEXITY>
404

> <PUBCHEM_CACTVS_HBOND_ACCEPTOR>
5

> <PUBCHEM_CACTVS_HBOND_DONOR>
1

> <PUBCHEM_CACTVS_ROTATABLE_BOND>
7

> <PUBCHEM_CACTVS_SUBSKEYS>
AAADceB7IABAAAAAAAAAAAAAAAAAAWLAAAAwYAAAAAAAAAAB0AAAHgQQAAAADAzh2gY915PIFAikAjRnZACC+KlxKjlJ2AwubIiOJiLkuZuHOCjs0BPY6CewwIAOAEAAAAAAAAAAgAAAAAAAAAAAAAAAAA==

> <PUBCHEM_IUPAC_OPENEYE_NAME>
5-phenyl-N-[4-(2-pyrrolidin-1-ylethoxy)phenyl]thiazol-2-amine

> <PUBCHEM_IUPAC_CAS_NAME>
5-phenyl-N-[4-[2-(1-pyrrolidinyl)ethoxy]phenyl]-2-thiazolamine

> <PUBCHEM_IUPAC_NAME>
5-phenyl-N-[4-(2-pyrrolidin-1-ylethoxy)phenyl]-1,3-thiazol-2-amine

> <PUBCHEM_IUPAC_SYSTEMATIC_NAME>
5-phenyl-N-[4-(2-pyrrolidin-1-ylethoxy)phenyl]-1,3-thiazol-2-amine

> <PUBCHEM_IUPAC_TRADITIONAL_NAME>
(5-phenylthiazol-2-yl)-[4-(2-pyrrolidinoethoxy)phenyl]amine

> <PUBCHEM_IUPAC_INCHI>
InChI=1S/C21H23N3OS/c1-2-6-17(7-3-1)20-16-22-21(26-20)23-18-8-10-19(11-9-18)25-15-14-24-12-4-5-13-24/h1-3,6-11,16H,4-5,12-15H2,(H,22,23)

> <PUBCHEM_IUPAC_INCHIKEY>
FNZTULJDGIXMJJ-UHFFFAOYSA-N

> <PUBCHEM_XLOGP3_AA>
5

> <PUBCHEM_EXACT_MASS>
365.156

> <PUBCHEM_MOLECULAR_FORMULA>
C21H23N3OS

> <PUBCHEM_MOLECULAR_WEIGHT>
365.495

> <PUBCHEM_OPENEYE_CAN_SMILES>
C1CCN(C1)CCOC2=CC=C(C=C2)NC3=NC=C(S3)C4=CC=CC=C4

> <PUBCHEM_OPENEYE_ISO_SMILES>
C1CCN(C1)CCOC2=CC=C(C=C2)NC3=NC=C(S3)C4=CC=CC=C4

> <PUBCHEM_CACTVS_TPSA>
65.6

> <PUBCHEM_MONOISOTOPIC_WEIGHT>
365.156

> <PUBCHEM_TOTAL_CHARGE>
0

> <PUBCHEM_HEAVY_ATOM_COUNT>
26

> <PUBCHEM_ATOM_DEF_STEREO_COUNT>
0

> <PUBCHEM_ATOM_UDEF_STEREO_COUNT>
0

> <PUBCHEM_BOND_DEF_STEREO_COUNT>
0

> <PUBCHEM_BOND_UDEF_STEREO_COUNT>
0

> <PUBCHEM_ISOTOPIC_ATOM_COUNT>
0

> <PUBCHEM_COMPONENT_COUNT>
1

> <PUBCHEM_CACTVS_TAUTO_COUNT>
2

> <PUBCHEM_COORDINATE_TYPE>
1
5
255

> <PUBCHEM_BONDANNOTATIONS>
1  18  8
1  19  8
12  13  8
12  14  8
13  16  8
14  17  8
15  16  8
15  17  8
19  21  8
20  22  8
20  23  8
22  24  8
23  25  8
24  26  8
25  26  8
5  18  8
5  21  8

$$$$
5329468
  -OEChem-11021605012D

 35 38  0     0  0  0  0  0  0999 V2000
    9.4064   -3.1260    0.0000 S   0  0  0  0  0  0  0  0  0  0  0  0
    2.0000    2.4366    0.0000 O   0  0  0  0  0  0  0  0  0  0  0  0
    7.1962    0.4366    0.0000 N   0  0  0  0  0  0  0  0  0  0  0  0
    6.3301   -1.0634    0.0000 N   0  0  0  0  0  0  0  0  0  0  0  0
    8.1424    0.7414    0.0000 N   0  0  0  0  0  0  0  0  0  0  0  0
    7.1962   -0.5634    0.0000 C   0  0  0  0  0  0  0  0  0  0  0  0
    8.1424   -0.8681    0.0000 C   0  0  0  0  0  0  0  0  0  0  0  0
    5.4641    0.4366    0.0000 C   0  0  0  0  0  0  0  0  0  0  0  0
    6.3301    0.9366    0.0000 C   0  0  0  0  0  0  0  0  0  0  0  0
    4.5981    0.9366    0.0000 C   0  0  0  0  0  0  0  0  0  0  0  0
    8.4530   -1.8186    0.0000 C   0  0  0  0  0  0  0  0  0  0  0  0
    8.7260   -0.0634    0.0000 C   0  0  0  0  0  0  0  0  0  0  0  0
    5.4641   -0.5634    0.0000 C   0  0  0  0  0  0  0  0  0  0  0  0
    4.5981    1.9366    0.0000 C   0  0  0  0  0  0  0  0  0  0  0  0
    3.7320    0.4366    0.0000 C   0  0  0  0  0  0  0  0  0  0  0  0
    7.8666   -2.6286    0.0000 C   0  0  0  0  0  0  0  0  0  0  0  0
    9.4046   -2.1260    0.0000 C   0  0  0  0  0  0  0  0  0  0  0  0
    3.7320    2.4366    0.0000 C   0  0  0  0  0  0  0  0  0  0  0  0
    2.8660    0.9366    0.0000 C   0  0  0  0  0  0  0  0  0  0  0  0
    2.8660    1.9366    0.0000 C   0  0  0  0  0  0  0  0  0  0  0  0
    8.4558   -3.4366    0.0000 C   0  0  0  0  0  0  0  0  0  0  0  0
    2.0000    3.4366    0.0000 C   0  0  0  0  0  0  0  0  0  0  0  0
    6.3301    1.5566    0.0000 H   0  0  0  0  0  0  0  0  0  0  0  0
    9.3460   -0.0634    0.0000 H   0  0  0  0  0  0  0  0  0  0  0  0
    4.9272   -0.8734    0.0000 H   0  0  0  0  0  0  0  0  0  0  0  0
    5.1350    2.2466    0.0000 H   0  0  0  0  0  0  0  0  0  0  0  0
    3.7320   -0.1834    0.0000 H   0  0  0  0  0  0  0  0  0  0  0  0
    7.2466   -2.6297    0.0000 H   0  0  0  0  0  0  0  0  0  0  0  0
    9.9056   -1.7607    0.0000 H   0  0  0  0  0  0  0  0  0  0  0  0
    3.7320    3.0566    0.0000 H   0  0  0  0  0  0  0  0  0  0  0  0
    2.3291    0.6266    0.0000 H   0  0  0  0  0  0  0  0  0  0  0  0
    8.2653   -4.0266    0.0000 H   0  0  0  0  0  0  0  0  0  0  0  0
    2.6200    3.4366    0.0000 H   0  0  0  0  0  0  0  0  0  0  0  0
    2.0000    4.0566    0.0000 H   0  0  0  0  0  0  0  0  0  0  0  0
    1.3800    3.4366    0.0000 H   0  0  0  0  0  0  0  0  0  0  0  0
  1 17  1  0  0  0  0
  1 21  1  0  0  0  0
  2 20  1  0  0  0  0
  2 22  1  0  0  0  0
  3  5  1  0  0  0  0
  3  6  1  0  0  0  0
  3  9  1  0  0  0  0
  4  6  1  0  0  0  0
  4 13  2  0  0  0  0
  5 12  2  0  0  0  0
  6  7  2  0  0  0  0
  7 11  1  0  0  0  0
  7 12  1  0  0  0  0
  8  9  2  0  0  0  0
  8 10  1  0  0  0  0
  8 13  1  0  0  0  0
  9 23  1  0  0  0  0
 10 14  2  0  0  0  0
 10 15  1  0  0  0  0
 11 16  1  0  0  0  0
 11 17  2  0  0  0  0
 12 24  1  0  0  0  0
 13 25  1  0  0  0  0
 14 18  1  0  0  0  0
 14 26  1  0  0  0  0
 15 19  2  0  0  0  0
 15 27  1  0  0  0  0
 16 21  2  0  0  0  0
 16 28  1  0  0  0  0
 17 29  1  0  0  0  0
 18 20  2  0  0  0  0
 18 30  1  0  0  0  0
 19 20  1  0  0  0  0
 19 31  1  0  0  0  0
 21 32  1  0  0  0  0
 22 33  1  0  0  0  0
 22 34  1  0  0  0  0
 22 35  1  0  0  0  0
M  END
> <PUBCHEM_COMPOUND_CID>
5329468

> <PUBCHEM_COMPOUND_CANONICALIZED>
1

> <PUBCHEM_CACTVS_COMPLEXITY>
375

> <PUBCHEM_CACTVS_HBOND_ACCEPTOR>
4

> <PUBCHEM_CACTVS_HBOND_DONOR>
0

> <PUBCHEM_CACTVS_ROTATABLE_BOND>
3

> <PUBCHEM_CACTVS_SUBSKEYS>
AAADccB7IABAAAAAAAAAAAAAAAAAAWJAAAA8QAAAAAAAAFgB/AAAHgQIAAAADATF2wa/t54IFAimAjJnZACTjKsxqLBd2DguTJiMLuLk+VuEtCgsyBPo6CeQwNAOoAAAAAAAAABAAAAAAAAAAAAAAAAAAA==

> <PUBCHEM_IUPAC_OPENEYE_NAME>
6-(4-methoxyphenyl)-3-(3-thienyl)pyrazolo[1,5-a]pyrimidine

> <PUBCHEM_IUPAC_CAS_NAME>
6-(4-methoxyphenyl)-3-(3-thiophenyl)pyrazolo[1,5-a]pyrimidine

> <PUBCHEM_IUPAC_NAME>
6-(4-methoxyphenyl)-3-thiophen-3-ylpyrazolo[1,5-a]pyrimidine

> <PUBCHEM_IUPAC_SYSTEMATIC_NAME>
6-(4-methoxyphenyl)-3-thiophen-3-yl-pyrazolo[1,5-a]pyrimidine

> <PUBCHEM_IUPAC_TRADITIONAL_NAME>
6-(4-methoxyphenyl)-3-(3-thienyl)pyrazolo[1,5-a]pyrimidine

> <PUBCHEM_IUPAC_INCHI>
InChI=1S/C17H13N3OS/c1-21-15-4-2-12(3-5-15)14-8-18-17-16(9-19-20(17)10-14)13-6-7-22-11-13/h2-11H,1H3

> <PUBCHEM_IUPAC_INCHIKEY>
HBWLNACPIFKNIP-UHFFFAOYSA-N

> <PUBCHEM_XLOGP3_AA>
3.2

> <PUBCHEM_EXACT_MASS>
307.078

> <PUBCHEM_MOLECULAR_FORMULA>
C17H13N3OS

> <PUBCHEM_MOLECULAR_WEIGHT>
307.371

> <PUBCHEM_OPENEYE_CAN_SMILES>
COC1=CC=C(C=C1)C2=CN3C(=C(C=N3)C4=CSC=C4)N=C2

> <PUBCHEM_OPENEYE_ISO_SMILES>
COC1=CC=C(C=C1)C2=CN3C(=C(C=N3)C4=CSC=C4)N=C2

> <PUBCHEM_CACTVS_TPSA>
67.7

> <PUBCHEM_MONOISOTOPIC_WEIGHT>
307.078

> <PUBCHEM_TOTAL_CHARGE>
0

> <PUBCHEM_HEAVY_ATOM_COUNT>
22

> <PUBCHEM_ATOM_DEF_STEREO_COUNT>
0

> <PUBCHEM_ATOM_UDEF_STEREO_COUNT>
0

> <PUBCHEM_BOND_DEF_STEREO_COUNT>
0

> <PUBCHEM_BOND_UDEF_STEREO_COUNT>
0

> <PUBCHEM_ISOTOPIC_ATOM_COUNT>
0

> <PUBCHEM_COMPONENT_COUNT>
1

> <PUBCHEM_CACTVS_TAUTO_COUNT>
1

> <PUBCHEM_COORDINATE_TYPE>
1
5
255

> <PUBCHEM_BONDANNOTATIONS>
1  17  8
1  21  8
10  14  8
10  15  8
11  16  8
11  17  8
14  18  8
15  19  8
16  21  8
18  20  8
19  20  8
3  5  8
3  6  8
3  9  8
4  13  8
4  6  8
5  12  8
6  7  8
7  12  8
8  13  8
8  9  8

$$$$
6539732
  -OEChem-11021605012D

 30 32  0     0  0  0  0  0  0999 V2000
    2.0000   -4.2852    0.0000 I   0  0  0  0  0  0  0  0  0  0  0  0
    4.5981   -0.7852    0.0000 S   0  0  0  0  0  0  0  0  0  0  0  0
    5.4071    0.8026    0.0000 O   0  0  0  0  0  0  0  0  0  0  0  0
    4.0981    1.7536    0.0000 N   0  0  0  0  0  0  0  0  0  0  0  0
    3.7891    0.8026    0.0000 N   0  0  0  0  0  0  0  0  0  0  0  0
    6.8614    4.1807    0.0000 N   0  0  0  0  0  0  0  0  0  0  0  0
    3.7320   -2.2852    0.0000 C   0  0  0  0  0  0  0  0  0  0  0  0
    3.7320   -1.2852    0.0000 C   0  0  0  0  0  0  0  0  0  0  0  0
    2.8660   -2.7852    0.0000 C   0  0  0  0  0  0  0  0  0  0  0  0
    4.5981   -2.7852    0.0000 C   0  0  0  0  0  0  0  0  0  0  0  0
    5.6859    2.5626    0.0000 C   0  0  0  0  0  0  0  0  0  0  0  0
    5.0981    1.7536    0.0000 C   0  0  0  0  0  0  0  0  0  0  0  0
    2.8660   -3.7852    0.0000 C   0  0  0  0  0  0  0  0  0  0  0  0
    4.5981   -3.7852    0.0000 C   0  0  0  0  0  0  0  0  0  0  0  0
    4.5981    0.2148    0.0000 C   0  0  0  0  0  0  0  0  0  0  0  0
    3.7320   -4.2852    0.0000 C   0  0  0  0  0  0  0  0  0  0  0  0
    5.2791    3.4762    0.0000 C   0  0  0  0  0  0  0  0  0  0  0  0
    6.6804    2.4581    0.0000 C   0  0  0  0  0  0  0  0  0  0  0  0
    5.8669    4.2852    0.0000 C   0  0  0  0  0  0  0  0  0  0  0  0
    7.2682    3.2671    0.0000 C   0  0  0  0  0  0  0  0  0  0  0  0
    3.5200   -0.7026    0.0000 H   0  0  0  0  0  0  0  0  0  0  0  0
    3.1215   -1.3929    0.0000 H   0  0  0  0  0  0  0  0  0  0  0  0
    2.3291   -2.4752    0.0000 H   0  0  0  0  0  0  0  0  0  0  0  0
    5.1350   -2.4752    0.0000 H   0  0  0  0  0  0  0  0  0  0  0  0
    5.1350   -4.0952    0.0000 H   0  0  0  0  0  0  0  0  0  0  0  0
    3.7320   -4.9052    0.0000 H   0  0  0  0  0  0  0  0  0  0  0  0
    4.6625    3.5410    0.0000 H   0  0  0  0  0  0  0  0  0  0  0  0
    6.9326    1.8917    0.0000 H   0  0  0  0  0  0  0  0  0  0  0  0
    5.6147    4.8516    0.0000 H   0  0  0  0  0  0  0  0  0  0  0  0
    7.8848    3.2023    0.0000 H   0  0  0  0  0  0  0  0  0  0  0  0
  1 13  1  0  0  0  0
  2  8  1  0  0  0  0
  2 15  1  0  0  0  0
  3 12  1  0  0  0  0
  3 15  1  0  0  0  0
  4  5  1  0  0  0  0
  4 12  2  0  0  0  0
  5 15  2  0  0  0  0
  6 19  2  0  0  0  0
  6 20  1  0  0  0  0
  7  8  1  0  0  0  0
  7  9  2  0  0  0  0
  7 10  1  0  0  0  0
  8 21  1  0  0  0  0
  8 22  1  0  0  0  0
  9 13  1  0  0  0  0
  9 23  1  0  0  0  0
 10 14  2  0  0  0  0
 10 24  1  0  0  0  0
 11 12  1  0  0  0  0
 11 17  2  0  0  0  0
 11 18  1  0  0  0  0
 13 16  2  0  0  0  0
 14 16  1  0  0  0  0
 14 25  1  0  0  0  0
 16 26  1  0  0  0  0
 17 19  1  0  0  0  0
 17 27  1  0  0  0  0
 18 20  2  0  0  0  0
 18 28  1  0  0  0  0
 19 29  1  0  0  0  0
 20 30  1  0  0  0  0
M  END
> <PUBCHEM_COMPOUND_CID>
6539732

> <PUBCHEM_COMPOUND_CANONICALIZED>
1

> <PUBCHEM_CACTVS_COMPLEXITY>
304

> <PUBCHEM_CACTVS_HBOND_ACCEPTOR>
5

> <PUBCHEM_CACTVS_HBOND_DONOR>
0

> <PUBCHEM_CACTVS_ROTATABLE_BOND>
4

> <PUBCHEM_CACTVS_SUBSKEYS>
AAADccBzIABAAgAAAAAAAAAAAAAAAWAAAAA8QAAAAAAAAAAB8AAAHgQoAAAADADH2gS8gJIIFEiqAjF3VACSgCB9AjAa2CE4bNgIJvLgtZmMMQhkyAHI6Yc0gAAOAAAAAAAAAAAAAAAAAAAAAAAAAAAAAA==

> <PUBCHEM_IUPAC_OPENEYE_NAME>
2-[(3-iodophenyl)methylsulfanyl]-5-(4-pyridyl)-1,3,4-oxadiazole

> <PUBCHEM_IUPAC_CAS_NAME>
2-[(3-iodophenyl)methylthio]-5-pyridin-4-yl-1,3,4-oxadiazole

> <PUBCHEM_IUPAC_NAME>
2-[(3-iodophenyl)methylsulfanyl]-5-pyridin-4-yl-1,3,4-oxadiazole

> <PUBCHEM_IUPAC_SYSTEMATIC_NAME>
2-[(3-iodanylphenyl)methylsulfanyl]-5-pyridin-4-yl-1,3,4-oxadiazole

> <PUBCHEM_IUPAC_TRADITIONAL_NAME>
2-[(3-iodobenzyl)thio]-5-(4-pyridyl)-1,3,4-oxadiazole

> <PUBCHEM_IUPAC_INCHI>
InChI=1S/C14H10IN3OS/c15-12-3-1-2-10(8-12)9-20-14-18-17-13(19-14)11-4-6-16-7-5-11/h1-8H,9H2

> <PUBCHEM_IUPAC_INCHIKEY>
ZRHRPGSSSVYBRG-UHFFFAOYSA-N

> <PUBCHEM_XLOGP3>
2.6

> <PUBCHEM_EXACT_MASS>
394.959

> <PUBCHEM_MOLECULAR_FORMULA>
C14H10IN3OS

> <PUBCHEM_MOLECULAR_WEIGHT>
395.218

> <PUBCHEM_OPENEYE_CAN_SMILES>
C1=CC(=CC(=C1)I)CSC2=NN=C(O2)C3=CC=NC=C3

> <PUBCHEM_OPENEYE_ISO_SMILES>
C1=CC(=CC(=C1)I)CSC2=NN=C(O2)C3=CC=NC=C3

> <PUBCHEM_CACTVS_TPSA>
77.1

> <PUBCHEM_MONOISOTOPIC_WEIGHT>
394.959

> <PUBCHEM_TOTAL_CHARGE>
0

> <PUBCHEM_HEAVY_ATOM_COUNT>
20

> <PUBCHEM_ATOM_DEF_STEREO_COUNT>
0

> <PUBCHEM_ATOM_UDEF_STEREO_COUNT>
0

> <PUBCHEM_BOND_DEF_STEREO_COUNT>
0

> <PUBCHEM_BOND_UDEF_STEREO_COUNT>
0

> <PUBCHEM_ISOTOPIC_ATOM_COUNT>
0

> <PUBCHEM_COMPONENT_COUNT>
1

> <PUBCHEM_CACTVS_TAUTO_COUNT>
1

> <PUBCHEM_COORDINATE_TYPE>
1
5
255

> <PUBCHEM_BONDANNOTATIONS>
10  14  8
11  17  8
11  18  8
13  16  8
14  16  8
17  19  8
18  20  8
3  12  8
3  15  8
4  12  8
4  5  8
5  15  8
6  19  8
6  20  8
7  10  8
7  9  8
9  13  8

$$$$
5228
  -OEChem-11021605012D

 33 36  0     0  0  0  0  0  0999 V2000
    8.4851   -2.2028    0.0000 S   0  0  0  0  0  0  0  0  0  0  0  0
    2.0000   -1.3981    0.0000 F   0  0  0  0  0  0  0  0  0  0  0  0
    7.5388   -0.8981    0.0000 N   0  0  0  0  0  0  0  0  0  0  0  0
    6.5878   -2.2071    0.0000 N   0  0  0  0  0  0  0  0  0  0  0  0
    5.6607    2.2641    0.0000 N   0  0  0  0  0  0  0  0  0  0  0  0
    8.4851   -0.5933    0.0000 C   0  0  0  0  0  0  0  0  0  0  0  0
    6.5878   -0.5891    0.0000 C   0  0  0  0  0  0  0  0  0  0  0  0
    7.5388   -1.8981    0.0000 C   0  0  0  0  0  0  0  0  0  0  0  0
    9.0687   -1.3981    0.0000 C   0  0  0  0  0  0  0  0  0  0  0  0
    6.0000   -1.3981    0.0000 C   0  0  0  0  0  0  0  0  0  0  0  0
    6.2788    0.3620    0.0000 C   0  0  0  0  0  0  0  0  0  0  0  0
    5.0000   -1.3981    0.0000 C   0  0  0  0  0  0  0  0  0  0  0  0
    5.3006    0.5699    0.0000 C   0  0  0  0  0  0  0  0  0  0  0  0
    6.9479    1.1051    0.0000 C   0  0  0  0  0  0  0  0  0  0  0  0
    4.5000   -0.5321    0.0000 C   0  0  0  0  0  0  0  0  0  0  0  0
    4.5000   -2.2641    0.0000 C   0  0  0  0  0  0  0  0  0  0  0  0
    3.5000   -0.5321    0.0000 C   0  0  0  0  0  0  0  0  0  0  0  0
    3.5000   -2.2641    0.0000 C   0  0  0  0  0  0  0  0  0  0  0  0
    4.9916    1.5210    0.0000 C   0  0  0  0  0  0  0  0  0  0  0  0
    6.6389    2.0562    0.0000 C   0  0  0  0  0  0  0  0  0  0  0  0
    3.0000   -1.3981    0.0000 C   0  0  0  0  0  0  0  0  0  0  0  0
    9.0224   -0.2841    0.0000 H   0  0  0  0  0  0  0  0  0  0  0  0
    8.2340   -0.0264    0.0000 H   0  0  0  0  0  0  0  0  0  0  0  0
    9.5295   -1.8128    0.0000 H   0  0  0  0  0  0  0  0  0  0  0  0
    9.5295   -0.9834    0.0000 H   0  0  0  0  0  0  0  0  0  0  0  0
    4.8858    0.1092    0.0000 H   0  0  0  0  0  0  0  0  0  0  0  0
    7.5544    0.9762    0.0000 H   0  0  0  0  0  0  0  0  0  0  0  0
    4.8100    0.0049    0.0000 H   0  0  0  0  0  0  0  0  0  0  0  0
    4.8100   -2.8010    0.0000 H   0  0  0  0  0  0  0  0  0  0  0  0
    3.1900    0.0049    0.0000 H   0  0  0  0  0  0  0  0  0  0  0  0
    3.1900   -2.8010    0.0000 H   0  0  0  0  0  0  0  0  0  0  0  0
    4.3852    1.6499    0.0000 H   0  0  0  0  0  0  0  0  0  0  0  0
    7.0537    2.5169    0.0000 H   0  0  0  0  0  0  0  0  0  0  0  0
  1  8  1  0  0  0  0
  1  9  1  0  0  0  0
  2 21  1  0  0  0  0
  3  6  1  0  0  0  0
  3  7  1  0  0  0  0
  3  8  1  0  0  0  0
  4  8  2  0  0  0  0
  4 10  1  0  0  0  0
  5 19  2  0  0  0  0
  5 20  1  0  0  0  0
  6  9  1  0  0  0  0
  6 22  1  0  0  0  0
  6 23  1  0  0  0  0
  7 10  2  0  0  0  0
  7 11  1  0  0  0  0
  9 24  1  0  0  0  0
  9 25  1  0  0  0  0
 10 12  1  0  0  0  0
 11 13  2  0  0  0  0
 11 14  1  0  0  0  0
 12 15  2  0  0  0  0
 12 16  1  0  0  0  0
 13 19  1  0  0  0  0
 13 26  1  0  0  0  0
 14 20  2  0  0  0  0
 14 27  1  0  0  0  0
 15 17  1  0  0  0  0
 15 28  1  0  0  0  0
 16 18  2  0  0  0  0
 16 29  1  0  0  0  0
 17 21  2  0  0  0  0
 17 30  1  0  0  0  0
 18 21  1  0  0  0  0
 18 31  1  0  0  0  0
 19 32  1  0  0  0  0
 20 33  1  0  0  0  0
M  END
> <PUBCHEM_COMPOUND_CID>
5228

> <PUBCHEM_COMPOUND_CANONICALIZED>
1

> <PUBCHEM_CACTVS_COMPLEXITY>
355

> <PUBCHEM_CACTVS_HBOND_ACCEPTOR>
4

> <PUBCHEM_CACTVS_HBOND_DONOR>
0

> <PUBCHEM_CACTVS_ROTATABLE_BOND>
2

> <PUBCHEM_CACTVS_SUBSKEYS>
AAADccB7AQBAAAAAAAAAAAAAAAAAAWLAAAA8QAAAAAAWAAAB8AAAHQQAAAAADAjFXgy9kJcMEAigAzRnZACC0C1xErAJ2CA4dJiIaOLAmZGUIAhogALIyCcQgMAOAAAAAAAAAAAAAAAAAAAAAAAAAAAAAA==

> <PUBCHEM_IUPAC_OPENEYE_NAME>
6-(4-fluorophenyl)-5-(4-pyridyl)-2,3-dihydroimidazo[2,1-b]thiazole

> <PUBCHEM_IUPAC_CAS_NAME>
6-(4-fluorophenyl)-5-pyridin-4-yl-2,3-dihydroimidazo[2,1-b]thiazole

> <PUBCHEM_IUPAC_NAME>
6-(4-fluorophenyl)-5-pyridin-4-yl-2,3-dihydroimidazo[2,1-b][1,3]thiazole

> <PUBCHEM_IUPAC_SYSTEMATIC_NAME>
6-(4-fluorophenyl)-5-pyridin-4-yl-2,3-dihydroimidazo[2,1-b][1,3]thiazole

> <PUBCHEM_IUPAC_TRADITIONAL_NAME>
6-(4-fluorophenyl)-5-(4-pyridyl)-2,3-dihydroimidazo[2,1-b]thiazole

> <PUBCHEM_IUPAC_INCHI>
InChI=1S/C16H12FN3S/c17-13-3-1-11(2-4-13)14-15(12-5-7-18-8-6-12)20-9-10-21-16(20)19-14/h1-8H,9-10H2

> <PUBCHEM_IUPAC_INCHIKEY>
YOELZIQOLWZLQC-UHFFFAOYSA-N

> <PUBCHEM_XLOGP3_AA>
2.9

> <PUBCHEM_EXACT_MASS>
297.074

> <PUBCHEM_MOLECULAR_FORMULA>
C16H12FN3S

> <PUBCHEM_MOLECULAR_WEIGHT>
297.351

> <PUBCHEM_OPENEYE_CAN_SMILES>
C1CSC2=NC(=C(N21)C3=CC=NC=C3)C4=CC=C(C=C4)F

> <PUBCHEM_OPENEYE_ISO_SMILES>
C1CSC2=NC(=C(N21)C3=CC=NC=C3)C4=CC=C(C=C4)F

> <PUBCHEM_CACTVS_TPSA>
56

> <PUBCHEM_MONOISOTOPIC_WEIGHT>
297.074

> <PUBCHEM_TOTAL_CHARGE>
0

> <PUBCHEM_HEAVY_ATOM_COUNT>
21

> <PUBCHEM_ATOM_DEF_STEREO_COUNT>
0

> <PUBCHEM_ATOM_UDEF_STEREO_COUNT>
0

> <PUBCHEM_BOND_DEF_STEREO_COUNT>
0

> <PUBCHEM_BOND_UDEF_STEREO_COUNT>
0

> <PUBCHEM_ISOTOPIC_ATOM_COUNT>
0

> <PUBCHEM_COMPONENT_COUNT>
1

> <PUBCHEM_CACTVS_TAUTO_COUNT>
1

> <PUBCHEM_COORDINATE_TYPE>
1
5
255

> <PUBCHEM_BONDANNOTATIONS>
11  13  8
11  14  8
12  15  8
12  16  8
13  19  8
14  20  8
15  17  8
16  18  8
17  21  8
18  21  8
3  7  8
3  8  8
4  10  8
4  8  8
5  19  8
5  20  8
7  10  8

$$$$
5154691
  -OEChem-11021605012D

 46 49  0     0  0  0  0  0  0999 V2000
    3.9883   -0.6544    0.0000 N   0  0  0  0  0  0  0  0  0  0  0  0
    4.6554    0.0827    0.0000 N   0  0  0  0  0  0  0  0  0  0  0  0
    4.1710   -2.4679    0.0000 N   0  0  0  0  0  0  0  0  0  0  0  0
    5.8173   -3.0060    0.0000 N   0  0  0  0  0  0  0  0  0  0  0  0
    7.1065   -1.8492    0.0000 N   0  0  0  0  0  0  0  0  0  0  0  0
    2.9942   -0.5464    0.0000 C   0  0  0  0  0  0  0  0  0  0  0  0
    4.4816   -1.5174    0.0000 C   0  0  0  0  0  0  0  0  0  0  0  0
    5.5632   -0.3224    0.0000 C   0  0  0  0  0  0  0  0  0  0  0  0
    5.4601   -1.3112    0.0000 C   0  0  0  0  0  0  0  0  0  0  0  0
    2.0000   -0.4384    0.0000 C   0  0  0  0  0  0  0  0  0  0  0  0
    3.1021    0.4478    0.0000 C   0  0  0  0  0  0  0  0  0  0  0  0
    2.8862   -1.5405    0.0000 C   0  0  0  0  0  0  0  0  0  0  0  0
    6.4292    0.1776    0.0000 C   0  0  0  0  0  0  0  0  0  0  0  0
    6.4292    1.1776    0.0000 C   0  0  0  0  0  0  0  0  0  0  0  0
    6.1280   -2.0555    0.0000 C   0  0  0  0  0  0  0  0  0  0  0  0
    7.2952    1.6776    0.0000 C   0  0  0  0  0  0  0  0  0  0  0  0
    7.2952    2.6776    0.0000 C   0  0  0  0  0  0  0  0  0  0  0  0
    5.5632    1.6776    0.0000 C   0  0  0  0  0  0  0  0  0  0  0  0
    4.8388   -3.2122    0.0000 C   0  0  0  0  0  0  0  0  0  0  0  0
    8.1892    1.1429    0.0000 C   0  0  0  0  0  0  0  0  0  0  0  0
    6.4292    3.1776    0.0000 C   0  0  0  0  0  0  0  0  0  0  0  0
    5.5632    2.6776    0.0000 C   0  0  0  0  0  0  0  0  0  0  0  0
    8.1892    3.2122    0.0000 C   0  0  0  0  0  0  0  0  0  0  0  0
    9.0952    1.6567    0.0000 C   0  0  0  0  0  0  0  0  0  0  0  0
    9.0952    2.6984    0.0000 C   0  0  0  0  0  0  0  0  0  0  0  0
    2.0669    0.1780    0.0000 H   0  0  0  0  0  0  0  0  0  0  0  0
    1.3836   -0.3715    0.0000 H   0  0  0  0  0  0  0  0  0  0  0  0
    2.2698   -1.4736    0.0000 H   0  0  0  0  0  0  0  0  0  0  0  0
    2.8192   -2.1569    0.0000 H   0  0  0  0  0  0  0  0  0  0  0  0
    3.5026   -1.6075    0.0000 H   0  0  0  0  0  0  0  0  0  0  0  0
    3.7185    0.3808    0.0000 H   0  0  0  0  0  0  0  0  0  0  0  0
    3.1691    1.0642    0.0000 H   0  0  0  0  0  0  0  0  0  0  0  0
    2.4858    0.5147    0.0000 H   0  0  0  0  0  0  0  0  0  0  0  0
    1.9331   -1.0548    0.0000 H   0  0  0  0  0  0  0  0  0  0  0  0
    6.6413   -0.4051    0.0000 H   0  0  0  0  0  0  0  0  0  0  0  0
    7.0398    0.2852    0.0000 H   0  0  0  0  0  0  0  0  0  0  0  0
    5.0262    1.3676    0.0000 H   0  0  0  0  0  0  0  0  0  0  0  0
    4.6462   -3.8015    0.0000 H   0  0  0  0  0  0  0  0  0  0  0  0
    8.1820    0.5229    0.0000 H   0  0  0  0  0  0  0  0  0  0  0  0
    6.4292    3.7976    0.0000 H   0  0  0  0  0  0  0  0  0  0  0  0
    5.0262    2.9876    0.0000 H   0  0  0  0  0  0  0  0  0  0  0  0
    7.5205   -2.3107    0.0000 H   0  0  0  0  0  0  0  0  0  0  0  0
    7.2991   -1.2599    0.0000 H   0  0  0  0  0  0  0  0  0  0  0  0
    8.1820    3.8322    0.0000 H   0  0  0  0  0  0  0  0  0  0  0  0
    9.6310    1.3447    0.0000 H   0  0  0  0  0  0  0  0  0  0  0  0
    9.6310    3.0104    0.0000 H   0  0  0  0  0  0  0  0  0  0  0  0
  1  2  1  0  0  0  0
  1  6  1  0  0  0  0
  1  7  1  0  0  0  0
  2  8  2  0  0  0  0
  3  7  2  0  0  0  0
  3 19  1  0  0  0  0
  4 15  1  0  0  0  0
  4 19  2  0  0  0  0
  5 15  1  0  0  0  0
  5 42  1  0  0  0  0
  5 43  1  0  0  0  0
  6 10  1  0  0  0  0
  6 11  1  0  0  0  0
  6 12  1  0  0  0  0
  7  9  1  0  0  0  0
  8  9  1  0  0  0  0
  8 13  1  0  0  0  0
  9 15  2  0  0  0  0
 10 26  1  0  0  0  0
 10 27  1  0  0  0  0
 10 34  1  0  0  0  0
 11 31  1  0  0  0  0
 11 32  1  0  0  0  0
 11 33  1  0  0  0  0
 12 28  1  0  0  0  0
 12 29  1  0  0  0  0
 12 30  1  0  0  0  0
 13 14  1  0  0  0  0
 13 35  1  0  0  0  0
 13 36  1  0  0  0  0
 14 16  1  0  0  0  0
 14 18  2  0  0  0  0
 16 17  1  0  0  0  0
 16 20  2  0  0  0  0
 17 21  1  0  0  0  0
 17 23  2  0  0  0  0
 18 22  1  0  0  0  0
 18 37  1  0  0  0  0
 19 38  1  0  0  0  0
 20 24  1  0  0  0  0
 20 39  1  0  0  0  0
 21 22  2  0  0  0  0
 21 40  1  0  0  0  0
 22 41  1  0  0  0  0
 23 25  1  0  0  0  0
 23 44  1  0  0  0  0
 24 25  2  0  0  0  0
 24 45  1  0  0  0  0
 25 46  1  0  0  0  0
M  END
> <PUBCHEM_COMPOUND_CID>
5154691

> <PUBCHEM_COMPOUND_CANONICALIZED>
1

> <PUBCHEM_CACTVS_COMPLEXITY>
462

> <PUBCHEM_CACTVS_HBOND_ACCEPTOR>
4

> <PUBCHEM_CACTVS_HBOND_DONOR>
1

> <PUBCHEM_CACTVS_ROTATABLE_BOND>
3

> <PUBCHEM_CACTVS_SUBSKEYS>
AAADceB7gAAAAAAAAAAAAAAAAAAAAWAAAAA8YIAAAAAAAFjB/AAAHAAYAAAADIiBHwQ3sN5IEACiAyZjZACShCsxAKAd2CA4RJiIKCLA2dGEpAhoiALIyCcQgMAOgAACAAAQAAAAAAQAACAAAAAAAAAAAA==

> <PUBCHEM_IUPAC_OPENEYE_NAME>
1-tert-butyl-3-(1-naphthylmethyl)pyrazolo[3,4-d]pyrimidin-4-amine

> <PUBCHEM_IUPAC_CAS_NAME>
1-tert-butyl-3-(1-naphthalenylmethyl)-4-pyrazolo[3,4-d]pyrimidinamine

> <PUBCHEM_IUPAC_NAME>
1-tert-butyl-3-(naphthalen-1-ylmethyl)pyrazolo[3,4-d]pyrimidin-4-amine

> <PUBCHEM_IUPAC_SYSTEMATIC_NAME>
1-tert-butyl-3-(naphthalen-1-ylmethyl)pyrazolo[3,4-d]pyrimidin-4-amine

> <PUBCHEM_IUPAC_TRADITIONAL_NAME>
[1-tert-butyl-3-(1-naphthylmethyl)pyrazolo[3,4-d]pyrimidin-4-yl]amine

> <PUBCHEM_IUPAC_INCHI>
InChI=1S/C20H21N5/c1-20(2,3)25-19-17(18(21)22-12-23-19)16(24-25)11-14-9-6-8-13-7-4-5-10-15(13)14/h4-10,12H,11H2,1-3H3,(H2,21,22,23)

> <PUBCHEM_IUPAC_INCHIKEY>
GDQXJQSQYMMKRA-UHFFFAOYSA-N

> <PUBCHEM_XLOGP3_AA>
3.9

> <PUBCHEM_EXACT_MASS>
331.18

> <PUBCHEM_MOLECULAR_FORMULA>
C20H21N5

> <PUBCHEM_MOLECULAR_WEIGHT>
331.423

> <PUBCHEM_OPENEYE_CAN_SMILES>
CC(C)(C)N1C2=C(C(=N1)CC3=CC=CC4=CC=CC=C43)C(=NC=N2)N

> <PUBCHEM_OPENEYE_ISO_SMILES>
CC(C)(C)N1C2=C(C(=N1)CC3=CC=CC4=CC=CC=C43)C(=NC=N2)N

> <PUBCHEM_CACTVS_TPSA>
69.6

> <PUBCHEM_MONOISOTOPIC_WEIGHT>
331.18

> <PUBCHEM_TOTAL_CHARGE>
0

> <PUBCHEM_HEAVY_ATOM_COUNT>
25

> <PUBCHEM_ATOM_DEF_STEREO_COUNT>
0

> <PUBCHEM_ATOM_UDEF_STEREO_COUNT>
0

> <PUBCHEM_BOND_DEF_STEREO_COUNT>
0

> <PUBCHEM_BOND_UDEF_STEREO_COUNT>
0

> <PUBCHEM_ISOTOPIC_ATOM_COUNT>
0

> <PUBCHEM_COMPONENT_COUNT>
1

> <PUBCHEM_CACTVS_TAUTO_COUNT>
9

> <PUBCHEM_COORDINATE_TYPE>
1
5
255

> <PUBCHEM_BONDANNOTATIONS>
1  2  8
1  7  8
14  16  8
14  18  8
16  17  8
16  20  8
17  21  8
17  23  8
18  22  8
2  8  8
20  24  8
21  22  8
23  25  8
24  25  8
3  19  8
3  7  8
4  15  8
4  19  8
7  9  8
8  9  8
9  15  8

$$$$
2703
  -OEChem-11021605012D

 44 48  0     0  0  0  0  0  0999 V2000
    2.6079    0.6952    0.0000 O   0  0  0  0  0  0  0  0  0  0  0  0
    2.6079    2.3716    0.0000 O   0  0  0  0  0  0  0  0  0  0  0  0
    8.9752   -2.0647    0.0000 O   0  0  0  0  0  0  0  0  0  0  0  0
   10.7866   -1.0189    0.0000 O   0  0  0  0  0  0  0  0  0  0  0  0
    6.2435   -0.5081    0.0000 N   0  3  0  0  0  0  0  0  0  0  0  0
    6.2596    0.5334    0.0000 C   0  0  0  0  0  0  0  0  0  0  0  0
    7.1256    1.0334    0.0000 C   0  0  0  0  0  0  0  0  0  0  0  0
    5.3935    1.0334    0.0000 C   0  0  0  0  0  0  0  0  0  0  0  0
    8.0356    0.5266    0.0000 C   0  0  0  0  0  0  0  0  0  0  0  0
    8.0436   -0.5150    0.0000 C   0  0  0  0  0  0  0  0  0  0  0  0
    5.3935    2.0334    0.0000 C   0  0  0  0  0  0  0  0  0  0  0  0
    7.1415   -1.0358    0.0000 C   0  0  0  0  0  0  0  0  0  0  0  0
    7.1256    2.0334    0.0000 C   0  0  0  0  0  0  0  0  0  0  0  0
    4.4996    0.4988    0.0000 C   0  0  0  0  0  0  0  0  0  0  0  0
    6.2596    2.5334    0.0000 C   0  0  0  0  0  0  0  0  0  0  0  0
    4.4996    2.5681    0.0000 C   0  0  0  0  0  0  0  0  0  0  0  0
    3.5935    1.0126    0.0000 C   0  0  0  0  0  0  0  0  0  0  0  0
    8.9790   -1.0648    0.0000 C   0  0  0  0  0  0  0  0  0  0  0  0
    8.9624    1.0906    0.0000 C   0  0  0  0  0  0  0  0  0  0  0  0
    3.5935    2.0542    0.0000 C   0  0  0  0  0  0  0  0  0  0  0  0
    5.3717   -0.9980    0.0000 C   0  0  0  0  0  0  0  0  0  0  0  0
    9.9187   -0.5223    0.0000 C   0  0  0  0  0  0  0  0  0  0  0  0
    9.9103    0.5627    0.0000 C   0  0  0  0  0  0  0  0  0  0  0  0
    2.0000    1.5334    0.0000 C   0  0  0  0  0  0  0  0  0  0  0  0
    9.8393   -2.5681    0.0000 C   0  0  0  0  0  0  0  0  0  0  0  0
   11.6507   -0.5156    0.0000 C   0  0  0  0  0  0  0  0  0  0  0  0
    7.1391   -1.6558    0.0000 H   0  0  0  0  0  0  0  0  0  0  0  0
    7.6625    2.3434    0.0000 H   0  0  0  0  0  0  0  0  0  0  0  0
    4.5068   -0.1212    0.0000 H   0  0  0  0  0  0  0  0  0  0  0  0
    6.2596    3.1534    0.0000 H   0  0  0  0  0  0  0  0  0  0  0  0
    4.5068    3.1880    0.0000 H   0  0  0  0  0  0  0  0  0  0  0  0
    8.9505    1.7105    0.0000 H   0  0  0  0  0  0  0  0  0  0  0  0
    5.0680   -0.4576    0.0000 H   0  0  0  0  0  0  0  0  0  0  0  0
    4.8313   -1.3018    0.0000 H   0  0  0  0  0  0  0  0  0  0  0  0
    5.6755   -1.5385    0.0000 H   0  0  0  0  0  0  0  0  0  0  0  0
   10.4436    0.8789    0.0000 H   0  0  0  0  0  0  0  0  0  0  0  0
    1.5391    1.9482    0.0000 H   0  0  0  0  0  0  0  0  0  0  0  0
    1.5391    1.1187    0.0000 H   0  0  0  0  0  0  0  0  0  0  0  0
    9.5272   -3.1038    0.0000 H   0  0  0  0  0  0  0  0  0  0  0  0
   10.3750   -2.8802    0.0000 H   0  0  0  0  0  0  0  0  0  0  0  0
   10.1513   -2.0323    0.0000 H   0  0  0  0  0  0  0  0  0  0  0  0
   11.9628   -1.0513    0.0000 H   0  0  0  0  0  0  0  0  0  0  0  0
   12.1864   -0.2035    0.0000 H   0  0  0  0  0  0  0  0  0  0  0  0
   11.3386    0.0202    0.0000 H   0  0  0  0  0  0  0  0  0  0  0  0
  1 17  1  0  0  0  0
  1 24  1  0  0  0  0
  2 20  1  0  0  0  0
  2 24  1  0  0  0  0
  3 18  1  0  0  0  0
  3 25  1  0  0  0  0
  4 22  1  0  0  0  0
  4 26  1  0  0  0  0
  5  6  2  0  0  0  0
  5 12  1  0  0  0  0
  5 21  1  0  0  0  0
  6  7  1  0  0  0  0
  6  8  1  0  0  0  0
  7  9  2  0  0  0  0
  7 13  1  0  0  0  0
  8 11  1  0  0  0  0
  8 14  2  0  0  0  0
  9 10  1  0  0  0  0
  9 19  1  0  0  0  0
 10 12  2  0  0  0  0
 10 18  1  0  0  0  0
 11 15  1  0  0  0  0
 11 16  2  0  0  0  0
 12 27  1  0  0  0  0
 13 15  2  0  0  0  0
 13 28  1  0  0  0  0
 14 17  1  0  0  0  0
 14 29  1  0  0  0  0
 15 30  1  0  0  0  0
 16 20  1  0  0  0  0
 16 31  1  0  0  0  0
 17 20  2  0  0  0  0
 18 22  2  0  0  0  0
 19 23  2  0  0  0  0
 19 32  1  0  0  0  0
 21 33  1  0  0  0  0
 21 34  1  0  0  0  0
 21 35  1  0  0  0  0
 22 23  1  0  0  0  0
 23 36  1  0  0  0  0
 24 37  1  0  0  0  0
 24 38  1  0  0  0  0
 25 39  1  0  0  0  0
 25 40  1  0  0  0  0
 25 41  1  0  0  0  0
 26 42  1  0  0  0  0
 26 43  1  0  0  0  0
 26 44  1  0  0  0  0
M  CHG  1   5   1
M  END
> <PUBCHEM_COMPOUND_CID>
2703

> <PUBCHEM_COMPOUND_CANONICALIZED>
1

> <PUBCHEM_CACTVS_COMPLEXITY>
516

> <PUBCHEM_CACTVS_HBOND_ACCEPTOR>
4

> <PUBCHEM_CACTVS_HBOND_DONOR>
0

> <PUBCHEM_CACTVS_ROTATABLE_BOND>
2

> <PUBCHEM_CACTVS_SUBSKEYS>
AAADceB6OAAAAAAAAAAAAAAAAAAAASAAAAA8YMEAAAAAAEjx/AAAHgAAAAAADAzBngc+zvMMFACgAzRnRACCiCAxICAI2CAuzJgdJuLEsZukMCpmwBnO6Aew0PMO4AADQAAaQADAAAaAADSAAAAAAAAAAA==

> <PUBCHEM_IUPAC_OPENEYE_NAME>
1,2-dimethoxy-12-methyl-[1,3]benzodioxolo[5,6-c]phenanthridin-12-ium

> <PUBCHEM_IUPAC_CAS_NAME>
1,2-dimethoxy-12-methyl-[1,3]benzodioxolo[5,6-c]phenanthridin-12-ium

> <PUBCHEM_IUPAC_NAME>
1,2-dimethoxy-12-methyl-[1,3]benzodioxolo[5,6-c]phenanthridin-12-ium

> <PUBCHEM_IUPAC_SYSTEMATIC_NAME>
1,2-dimethoxy-12-methyl-[1,3]benzodioxolo[5,6-c]phenanthridin-12-ium

> <PUBCHEM_IUPAC_TRADITIONAL_NAME>
1,2-dimethoxy-12-methyl-[1,3]benzodioxolo[5,6-c]phenanthridin-12-ium

> <PUBCHEM_IUPAC_INCHI>
InChI=1S/C21H18NO4/c1-22-10-16-13(6-7-17(23-2)21(16)24-3)14-5-4-12-8-18-19(26-11-25-18)9-15(12)20(14)22/h4-10H,11H2,1-3H3/q+1

> <PUBCHEM_IUPAC_INCHIKEY>
LLEJIEBFSOEYIV-UHFFFAOYSA-N

> <PUBCHEM_XLOGP3_AA>
4.6

> <PUBCHEM_EXACT_MASS>
348.124

> <PUBCHEM_MOLECULAR_FORMULA>
C21H18NO4+

> <PUBCHEM_MOLECULAR_WEIGHT>
348.378

> <PUBCHEM_OPENEYE_CAN_SMILES>
C[N+]1=C2C(=C3C=CC(=C(C3=C1)OC)OC)C=CC4=CC5=C(C=C42)OCO5

> <PUBCHEM_OPENEYE_ISO_SMILES>
C[N+]1=C2C(=C3C=CC(=C(C3=C1)OC)OC)C=CC4=CC5=C(C=C42)OCO5

> <PUBCHEM_CACTVS_TPSA>
40.8

> <PUBCHEM_MONOISOTOPIC_WEIGHT>
348.124

> <PUBCHEM_TOTAL_CHARGE>
1

> <PUBCHEM_HEAVY_ATOM_COUNT>
26

> <PUBCHEM_ATOM_DEF_STEREO_COUNT>
0

> <PUBCHEM_ATOM_UDEF_STEREO_COUNT>
0

> <PUBCHEM_BOND_DEF_STEREO_COUNT>
0

> <PUBCHEM_BOND_UDEF_STEREO_COUNT>
0

> <PUBCHEM_ISOTOPIC_ATOM_COUNT>
0

> <PUBCHEM_COMPONENT_COUNT>
1

> <PUBCHEM_CACTVS_TAUTO_COUNT>
1

> <PUBCHEM_COORDINATE_TYPE>
1
5
255

> <PUBCHEM_BONDANNOTATIONS>
10  12  8
10  18  8
11  15  8
11  16  8
13  15  8
14  17  8
16  20  8
17  20  8
18  22  8
19  23  8
22  23  8
5  12  8
5  6  8
6  7  8
6  8  8
7  13  8
7  9  8
8  11  8
8  14  8
9  10  8
9  19  8

$$$$
2396
  -OEChem-11021605012D

 55 59  0     0  0  0  0  0  0999 V2000
    7.6224    0.9978    0.0000 O   0  0  0  0  0  0  0  0  0  0  0  0
    5.5582    3.8492    0.0000 O   0  0  0  0  0  0  0  0  0  0  0  0
    5.5521   -1.2804    0.0000 N   0  0  0  0  0  0  0  0  0  0  0  0
    6.8161    2.5870    0.0000 N   0  0  0  0  0  0  0  0  0  0  0  0
    8.1305   -3.5939    0.0000 N   0  0  0  0  0  0  0  0  0  0  0  0
    2.7457    1.5940    0.0000 N   0  0  0  0  0  0  0  0  0  0  0  0
    5.5521    0.3291    0.0000 C   0  0  0  0  0  0  0  0  0  0  0  0
    4.6059   -0.9757    0.0000 C   0  0  0  0  0  0  0  0  0  0  0  0
    5.8628   -2.2309    0.0000 C   0  0  0  0  0  0  0  0  0  0  0  0
    4.6059    0.0243    0.0000 C   0  0  0  0  0  0  0  0  0  0  0  0
    5.8628    1.2796    0.0000 C   0  0  0  0  0  0  0  0  0  0  0  0
    6.1358   -0.4757    0.0000 C   0  0  0  0  0  0  0  0  0  0  0  0
    6.8413   -2.4371    0.0000 C   0  0  0  0  0  0  0  0  0  0  0  0
    5.2764    2.0896    0.0000 C   0  0  0  0  0  0  0  0  0  0  0  0
    7.1520   -3.3876    0.0000 C   0  0  0  0  0  0  0  0  0  0  0  0
    4.2764    2.0914    0.0000 C   0  0  0  0  0  0  0  0  0  0  0  0
    3.7399   -1.4756    0.0000 C   0  0  0  0  0  0  0  0  0  0  0  0
    3.7399    0.5243    0.0000 C   0  0  0  0  0  0  0  0  0  0  0  0
    6.8144    1.5870    0.0000 C   0  0  0  0  0  0  0  0  0  0  0  0
    3.6942    2.8971    0.0000 C   0  0  0  0  0  0  0  0  0  0  0  0
    5.8656    2.8976    0.0000 C   0  0  0  0  0  0  0  0  0  0  0  0
    2.7431    2.5881    0.0000 C   0  0  0  0  0  0  0  0  0  0  0  0
    3.6914    1.2876    0.0000 C   0  0  0  0  0  0  0  0  0  0  0  0
    2.8739   -0.9757    0.0000 C   0  0  0  0  0  0  0  0  0  0  0  0
    2.8739    0.0243    0.0000 C   0  0  0  0  0  0  0  0  0  0  0  0
    3.9021    3.8752    0.0000 C   0  0  0  0  0  0  0  0  0  0  0  0
    2.0000    3.2572    0.0000 C   0  0  0  0  0  0  0  0  0  0  0  0
    8.4411   -4.5444    0.0000 C   0  0  0  0  0  0  0  0  0  0  0  0
    8.7983   -2.8496    0.0000 C   0  0  0  0  0  0  0  0  0  0  0  0
    3.1590    4.5444    0.0000 C   0  0  0  0  0  0  0  0  0  0  0  0
    2.2079    4.2354    0.0000 C   0  0  0  0  0  0  0  0  0  0  0  0
    5.2490   -2.3182    0.0000 H   0  0  0  0  0  0  0  0  0  0  0  0
    5.8422   -2.8506    0.0000 H   0  0  0  0  0  0  0  0  0  0  0  0
    6.7558   -0.4757    0.0000 H   0  0  0  0  0  0  0  0  0  0  0  0
    7.4551   -2.3498    0.0000 H   0  0  0  0  0  0  0  0  0  0  0  0
    6.8619   -1.8175    0.0000 H   0  0  0  0  0  0  0  0  0  0  0  0
    6.5382   -3.4750    0.0000 H   0  0  0  0  0  0  0  0  0  0  0  0
    7.1314   -4.0073    0.0000 H   0  0  0  0  0  0  0  0  0  0  0  0
    3.7399   -2.0956    0.0000 H   0  0  0  0  0  0  0  0  0  0  0  0
    3.7399    1.1444    0.0000 H   0  0  0  0  0  0  0  0  0  0  0  0
    7.3183    2.9505    0.0000 H   0  0  0  0  0  0  0  0  0  0  0  0
    3.8830    0.6980    0.0000 H   0  0  0  0  0  0  0  0  0  0  0  0
    2.3369   -1.2856    0.0000 H   0  0  0  0  0  0  0  0  0  0  0  0
    2.3369    0.3343    0.0000 H   0  0  0  0  0  0  0  0  0  0  0  0
    2.2448    1.2287    0.0000 H   0  0  0  0  0  0  0  0  0  0  0  0
    4.4918    4.0668    0.0000 H   0  0  0  0  0  0  0  0  0  0  0  0
    1.4103    3.0656    0.0000 H   0  0  0  0  0  0  0  0  0  0  0  0
    7.8518   -4.7370    0.0000 H   0  0  0  0  0  0  0  0  0  0  0  0
    8.6337   -5.1337    0.0000 H   0  0  0  0  0  0  0  0  0  0  0  0
    9.2598   -3.2636    0.0000 H   0  0  0  0  0  0  0  0  0  0  0  0
    9.2124   -2.3881    0.0000 H   0  0  0  0  0  0  0  0  0  0  0  0
    8.3368   -2.4355    0.0000 H   0  0  0  0  0  0  0  0  0  0  0  0
    9.0305   -4.3518    0.0000 H   0  0  0  0  0  0  0  0  0  0  0  0
    3.2879    5.1508    0.0000 H   0  0  0  0  0  0  0  0  0  0  0  0
    1.7472    4.6502    0.0000 H   0  0  0  0  0  0  0  0  0  0  0  0
  1 19  2  0  0  0  0
  2 21  2  0  0  0  0
  3  8  1  0  0  0  0
  3  9  1  0  0  0  0
  3 12  1  0  0  0  0
  4 19  1  0  0  0  0
  4 21  1  0  0  0  0
  4 41  1  0  0  0  0
  5 15  1  0  0  0  0
  5 28  1  0  0  0  0
  5 29  1  0  0  0  0
  6 22  1  0  0  0  0
  6 23  1  0  0  0  0
  6 45  1  0  0  0  0
  7 10  1  0  0  0  0
  7 11  1  0  0  0  0
  7 12  2  0  0  0  0
  8 10  1  0  0  0  0
  8 17  2  0  0  0  0
  9 13  1  0  0  0  0
  9 32  1  0  0  0  0
  9 33  1  0  0  0  0
 10 18  2  0  0  0  0
 11 14  2  0  0  0  0
 11 19  1  0  0  0  0
 12 34  1  0  0  0  0
 13 15  1  0  0  0  0
 13 35  1  0  0  0  0
 13 36  1  0  0  0  0
 14 16  1  0  0  0  0
 14 21  1  0  0  0  0
 15 37  1  0  0  0  0
 15 38  1  0  0  0  0
 16 20  1  0  0  0  0
 16 23  2  0  0  0  0
 17 24  1  0  0  0  0
 17 39  1  0  0  0  0
 18 25  1  0  0  0  0
 18 40  1  0  0  0  0
 20 22  1  0  0  0  0
 20 26  2  0  0  0  0
 22 27  2  0  0  0  0
 23 42  1  0  0  0  0
 24 25  2  0  0  0  0
 24 43  1  0  0  0  0
 25 44  1  0  0  0  0
 26 30  1  0  0  0  0
 26 46  1  0  0  0  0
 27 31  1  0  0  0  0
 27 47  1  0  0  0  0
 28 48  1  0  0  0  0
 28 49  1  0  0  0  0
 28 53  1  0  0  0  0
 29 50  1  0  0  0  0
 29 51  1  0  0  0  0
 29 52  1  0  0  0  0
 30 31  2  0  0  0  0
 30 54  1  0  0  0  0
 31 55  1  0  0  0  0
M  END
> <PUBCHEM_COMPOUND_CID>
2396

> <PUBCHEM_COMPOUND_CANONICALIZED>
1

> <PUBCHEM_CACTVS_COMPLEXITY>
748

> <PUBCHEM_CACTVS_HBOND_ACCEPTOR>
3

> <PUBCHEM_CACTVS_HBOND_DONOR>
2

> <PUBCHEM_CACTVS_ROTATABLE_BOND>
6

> <PUBCHEM_CACTVS_SUBSKEYS>
AAADceB7sAAAAAAAAAAAAAAAAAAAAWLEAAAwYAAAAAAAAFgB/gAAHgAQAAAADAjBngQ+wPPNkACoAzV3VACCgCAxAiAI2aE4ZNgIIPLA1ZGEIAhglCDIyQccicCegAAAAAACAAAAAAAAAAQAAAAAAAAAAA==

> <PUBCHEM_IUPAC_OPENEYE_NAME>
3-[1-[3-(dimethylamino)propyl]indol-3-yl]-4-(1H-indol-3-yl)pyrrole-2,5-dione

> <PUBCHEM_IUPAC_CAS_NAME>
3-[1-[3-(dimethylamino)propyl]-3-indolyl]-4-(1H-indol-3-yl)pyrrole-2,5-dione

> <PUBCHEM_IUPAC_NAME>
3-[1-[3-(dimethylamino)propyl]indol-3-yl]-4-(1H-indol-3-yl)pyrrole-2,5-dione

> <PUBCHEM_IUPAC_SYSTEMATIC_NAME>
3-[1-[3-(dimethylamino)propyl]indol-3-yl]-4-(1H-indol-3-yl)pyrrole-2,5-dione

> <PUBCHEM_IUPAC_TRADITIONAL_NAME>
3-[1-[3-(dimethylamino)propyl]indol-3-yl]-4-(1H-indol-3-yl)-3-pyrroline-2,5-quinone

> <PUBCHEM_IUPAC_INCHI>
InChI=1S/C25H24N4O2/c1-28(2)12-7-13-29-15-19(17-9-4-6-11-21(17)29)23-22(24(30)27-25(23)31)18-14-26-20-10-5-3-8-16(18)20/h3-6,8-11,14-15,26H,7,12-13H2,1-2H3,(H,27,30,31)

> <PUBCHEM_IUPAC_INCHIKEY>
QMGUOJYZJKLOLH-UHFFFAOYSA-N

> <PUBCHEM_XLOGP3_AA>
3.1

> <PUBCHEM_EXACT_MASS>
412.19

> <PUBCHEM_MOLECULAR_FORMULA>
C25H24N4O2

> <PUBCHEM_MOLECULAR_WEIGHT>
412.493

> <PUBCHEM_OPENEYE_CAN_SMILES>
CN(C)CCCN1C=C(C2=CC=CC=C21)C3=C(C(=O)NC3=O)C4=CNC5=CC=CC=C54

> <PUBCHEM_OPENEYE_ISO_SMILES>
CN(C)CCCN1C=C(C2=CC=CC=C21)C3=C(C(=O)NC3=O)C4=CNC5=CC=CC=C54

> <PUBCHEM_CACTVS_TPSA>
70.1

> <PUBCHEM_MONOISOTOPIC_WEIGHT>
412.19

> <PUBCHEM_TOTAL_CHARGE>
0

> <PUBCHEM_HEAVY_ATOM_COUNT>
31

> <PUBCHEM_ATOM_DEF_STEREO_COUNT>
0

> <PUBCHEM_ATOM_UDEF_STEREO_COUNT>
0

> <PUBCHEM_BOND_DEF_STEREO_COUNT>
0

> <PUBCHEM_BOND_UDEF_STEREO_COUNT>
0

> <PUBCHEM_ISOTOPIC_ATOM_COUNT>
0

> <PUBCHEM_COMPONENT_COUNT>
1

> <PUBCHEM_CACTVS_TAUTO_COUNT>
26

> <PUBCHEM_COORDINATE_TYPE>
1
5
255

> <PUBCHEM_BONDANNOTATIONS>
10  18  8
16  20  8
16  23  8
17  24  8
18  25  8
20  22  8
20  26  8
22  27  8
24  25  8
26  30  8
27  31  8
3  12  8
3  8  8
30  31  8
6  22  8
6  23  8
7  10  8
7  12  8
8  10  8
8  17  8

$$$$
44259
  -OEChem-11021605012D

 61 68  0     1  0  0  0  0  0999 V2000
    5.4017    2.3172    0.0000 O   0  0  0  0  0  0  0  0  0  0  0  0
    3.5998   -1.4246    0.0000 O   0  0  0  0  0  0  0  0  0  0  0  0
   10.6768    0.6180    0.0000 O   0  0  0  0  0  0  0  0  0  0  0  0
    5.9997   -0.6474    0.0000 N   0  0  0  0  0  0  0  0  0  0  0  0
    6.6837    1.2320    0.0000 N   0  0  0  0  0  0  0  0  0  0  0  0
    1.9091   -0.0555    0.0000 N   0  0  0  0  0  0  0  0  0  0  0  0
   10.3444   -1.1645    0.0000 N   0  0  0  0  0  0  0  0  0  0  0  0
    4.9239    0.3687    0.0000 C   0  0  2  0  0  0  0  0  0  0  0  0
    3.6522   -0.4260    0.0000 C   0  0  1  0  0  0  0  0  0  0  0  0
    4.6650    1.3346    0.0000 C   0  0  1  0  0  0  0  0  0  0  0  0
    2.8750    0.2034    0.0000 C   0  0  1  0  0  0  0  0  0  0  0  0
    3.2334    1.1369    0.0000 C   0  0  0  0  0  0  0  0  0  0  0  0
    6.9845   -0.4737    0.0000 C   0  0  0  0  0  0  0  0  0  0  0  0
    7.3265    0.4660    0.0000 C   0  0  0  0  0  0  0  0  0  0  0  0
    7.6416   -1.2819    0.0000 C   0  0  0  0  0  0  0  0  0  0  0  0
    8.3494    0.6626    0.0000 C   0  0  0  0  0  0  0  0  0  0  0  0
    6.0266   -1.6408    0.0000 C   0  0  0  0  0  0  0  0  0  0  0  0
    5.1827   -0.5972    0.0000 C   0  0  0  0  0  0  0  0  0  0  0  0
    7.3429    1.9757    0.0000 C   0  0  0  0  0  0  0  0  0  0  0  0
    6.9536   -1.9990    0.0000 C   0  0  0  0  0  0  0  0  0  0  0  0
    8.6688   -1.1089    0.0000 C   0  0  0  0  0  0  0  0  0  0  0  0
    9.0251   -0.1301    0.0000 C   0  0  0  0  0  0  0  0  0  0  0  0
    8.2833    1.6543    0.0000 C   0  0  0  0  0  0  0  0  0  0  0  0
    9.4864   -1.7443    0.0000 C   0  0  0  0  0  0  0  0  0  0  0  0
    5.2108   -2.2780    0.0000 C   0  0  0  0  0  0  0  0  0  0  0  0
   10.0598   -0.1689    0.0000 C   0  0  0  0  0  0  0  0  0  0  0  0
    7.1290   -3.0193    0.0000 C   0  0  0  0  0  0  0  0  0  0  0  0
    7.1275    2.9882    0.0000 C   0  0  0  0  0  0  0  0  0  0  0  0
    9.0735    2.3231    0.0000 C   0  0  0  0  0  0  0  0  0  0  0  0
    1.2020    0.6516    0.0000 C   0  0  0  0  0  0  0  0  0  0  0  0
    2.7088   -1.8786    0.0000 C   0  0  0  0  0  0  0  0  0  0  0  0
    5.3625   -3.3020    0.0000 C   0  0  0  0  0  0  0  0  0  0  0  0
    6.3281   -3.6751    0.0000 C   0  0  0  0  0  0  0  0  0  0  0  0
    7.9020    3.6751    0.0000 C   0  0  0  0  0  0  0  0  0  0  0  0
    8.8815    3.3403    0.0000 C   0  0  0  0  0  0  0  0  0  0  0  0
    3.0858   -0.6781    0.0000 H   0  0  0  0  0  0  0  0  0  0  0  0
    4.4451    2.1556    0.0000 H   0  0  0  0  0  0  0  0  0  0  0  0
    2.4602    0.6641    0.0000 H   0  0  0  0  0  0  0  0  0  0  0  0
    2.6256    1.2593    0.0000 H   0  0  0  0  0  0  0  0  0  0  0  0
    3.2524    1.7566    0.0000 H   0  0  0  0  0  0  0  0  0  0  0  0
    5.7816   -0.4368    0.0000 H   0  0  0  0  0  0  0  0  0  0  0  0
    5.3432   -1.1961    0.0000 H   0  0  0  0  0  0  0  0  0  0  0  0
    4.5838   -0.7577    0.0000 H   0  0  0  0  0  0  0  0  0  0  0  0
    1.7486   -0.6543    0.0000 H   0  0  0  0  0  0  0  0  0  0  0  0
    9.8856   -2.2187    0.0000 H   0  0  0  0  0  0  0  0  0  0  0  0
    9.0566   -2.1912    0.0000 H   0  0  0  0  0  0  0  0  0  0  0  0
    4.6351   -2.0478    0.0000 H   0  0  0  0  0  0  0  0  0  0  0  0
    7.7099   -3.2360    0.0000 H   0  0  0  0  0  0  0  0  0  0  0  0
    6.5386    3.1820    0.0000 H   0  0  0  0  0  0  0  0  0  0  0  0
   10.9270   -1.3766    0.0000 H   0  0  0  0  0  0  0  0  0  0  0  0
    9.6578    2.1157    0.0000 H   0  0  0  0  0  0  0  0  0  0  0  0
    0.7636    0.2132    0.0000 H   0  0  0  0  0  0  0  0  0  0  0  0
    0.7636    1.0900    0.0000 H   0  0  0  0  0  0  0  0  0  0  0  0
    1.6404    1.0900    0.0000 H   0  0  0  0  0  0  0  0  0  0  0  0
    2.9903   -2.4310    0.0000 H   0  0  0  0  0  0  0  0  0  0  0  0
    2.1564   -2.1600    0.0000 H   0  0  0  0  0  0  0  0  0  0  0  0
    2.4274   -1.3262    0.0000 H   0  0  0  0  0  0  0  0  0  0  0  0
    4.8783   -3.6892    0.0000 H   0  0  0  0  0  0  0  0  0  0  0  0
    6.4261   -4.2873    0.0000 H   0  0  0  0  0  0  0  0  0  0  0  0
    7.7800    4.2830    0.0000 H   0  0  0  0  0  0  0  0  0  0  0  0
    9.3501    3.7463    0.0000 H   0  0  0  0  0  0  0  0  0  0  0  0
  1  8  1  0  0  0  0
  1 10  1  0  0  0  0
  9  2  1  6  0  0  0
  2 31  1  0  0  0  0
  3 26  2  0  0  0  0
  4  8  1  0  0  0  0
  4 13  1  0  0  0  0
  4 17  1  0  0  0  0
  5 10  1  0  0  0  0
  5 14  1  0  0  0  0
  5 19  1  0  0  0  0
 11  6  1  6  0  0  0
  6 30  1  0  0  0  0
  6 44  1  0  0  0  0
  7 24  1  0  0  0  0
  7 26  1  0  0  0  0
  7 50  1  0  0  0  0
  8  9  1  0  0  0  0
  8 18  1  1  0  0  0
  9 11  1  0  0  0  0
  9 36  1  0  0  0  0
 10 12  1  0  0  0  0
 10 37  1  6  0  0  0
 11 12  1  0  0  0  0
 11 38  1  0  0  0  0
 12 39  1  0  0  0  0
 12 40  1  0  0  0  0
 13 14  2  0  0  0  0
 13 15  1  0  0  0  0
 14 16  1  0  0  0  0
 15 20  1  0  0  0  0
 15 21  2  0  0  0  0
 16 22  2  0  0  0  0
 16 23  1  0  0  0  0
 17 20  1  0  0  0  0
 17 25  2  0  0  0  0
 18 41  1  0  0  0  0
 18 42  1  0  0  0  0
 18 43  1  0  0  0  0
 19 23  1  0  0  0  0
 19 28  2  0  0  0  0
 20 27  2  0  0  0  0
 21 22  1  0  0  0  0
 21 24  1  0  0  0  0
 22 26  1  0  0  0  0
 23 29  2  0  0  0  0
 24 45  1  0  0  0  0
 24 46  1  0  0  0  0
 25 32  1  0  0  0  0
 25 47  1  0  0  0  0
 27 33  1  0  0  0  0
 27 48  1  0  0  0  0
 28 34  1  0  0  0  0
 28 49  1  0  0  0  0
 29 35  1  0  0  0  0
 29 51  1  0  0  0  0
 30 52  1  0  0  0  0
 30 53  1  0  0  0  0
 30 54  1  0  0  0  0
 31 55  1  0  0  0  0
 31 56  1  0  0  0  0
 31 57  1  0  0  0  0
 32 33  2  0  0  0  0
 32 58  1  0  0  0  0
 33 59  1  0  0  0  0
 34 35  2  0  0  0  0
 34 60  1  0  0  0  0
 35 61  1  0  0  0  0
M  END
> <PUBCHEM_COMPOUND_CID>
44259

> <PUBCHEM_COMPOUND_CANONICALIZED>
1

> <PUBCHEM_CACTVS_COMPLEXITY>
901

> <PUBCHEM_CACTVS_HBOND_ACCEPTOR>
4

> <PUBCHEM_CACTVS_HBOND_DONOR>
2

> <PUBCHEM_CACTVS_ROTATABLE_BOND>
2

> <PUBCHEM_CACTVS_SUBSKEYS>
AAADceB7sAAAAAAAAAAAAAAAAAAAAWLFgAA0YMEABYAAAFix/gAAHgAQAAAADDzhngYywPPMFACoAyVyVACCgCQlEiAI2KE4dNgLYPLA1ZGfIQhmlgDayQf82cOeyAACQAASACCQAASAACQAQAAAAAAAAA==

> <PUBCHEM_IUPAC_INCHI>
InChI=1S/C28H26N4O3/c1-28-26(34-3)17(29-2)12-20(35-28)31-18-10-6-4-8-14(18)22-23-16(13-30-27(23)33)21-15-9-5-7-11-19(15)32(28)25(21)24(22)31/h4-11,17,20,26,29H,12-13H2,1-3H3,(H,30,33)/t17-,20-,26-,28+/m1/s1

> <PUBCHEM_IUPAC_INCHIKEY>
HKSZLNNOFSGOKW-FYTWVXJKSA-N

> <PUBCHEM_XLOGP3_AA>
3.2

> <PUBCHEM_EXACT_MASS>
466.2

> <PUBCHEM_MOLECULAR_FORMULA>
C28H26N4O3

> <PUBCHEM_MOLECULAR_WEIGHT>
466.541

> <PUBCHEM_OPENEYE_CAN_SMILES>
CC12C(C(CC(O1)N3C4=CC=CC=C4C5=C6C(=C7C8=CC=CC=C8N2C7=C53)CNC6=O)NC)OC

> <PUBCHEM_OPENEYE_ISO_SMILES>
C[C@@]12[C@@H]([C@@H](C[C@@H](O1)N3C4=CC=CC=C4C5=C6C(=C7C8=CC=CC=C8N2C7=C53)CNC6=O)NC)OC

> <PUBCHEM_CACTVS_TPSA>
69.4

> <PUBCHEM_MONOISOTOPIC_WEIGHT>
466.2

> <PUBCHEM_TOTAL_CHARGE>
0

> <PUBCHEM_HEAVY_ATOM_COUNT>
35

> <PUBCHEM_ATOM_DEF_STEREO_COUNT>
4

> <PUBCHEM_ATOM_UDEF_STEREO_COUNT>
0

> <PUBCHEM_BOND_DEF_STEREO_COUNT>
0

> <PUBCHEM_BOND_UDEF_STEREO_COUNT>
0

> <PUBCHEM_ISOTOPIC_ATOM_COUNT>
0

> <PUBCHEM_COMPONENT_COUNT>
1

> <PUBCHEM_CACTVS_TAUTO_COUNT>
2

> <PUBCHEM_COORDINATE_TYPE>
1
5
255

> <PUBCHEM_BONDANNOTATIONS>
10  37  6
13  14  8
13  15  8
14  16  8
15  20  8
15  21  8
16  22  8
16  23  8
17  20  8
17  25  8
19  23  8
19  28  8
9  2  6
20  27  8
21  22  8
23  29  8
25  32  8
27  33  8
28  34  8
29  35  8
32  33  8
34  35  8
4  13  8
4  17  8
5  14  8
5  19  8
11  6  6
8  18  5

$$$$
2326992
  -OEChem-11021605012D

 63 68  0     0  0  0  0  0  0999 V2000
    4.9718   -2.0848    0.0000 S   0  0  0  0  0  0  0  0  0  0  0  0
    8.6192   -0.9008    0.0000 N   0  3  0  0  0  0  0  0  0  0  0  0
    8.6192    0.7086    0.0000 N   0  0  0  0  0  0  0  0  0  0  0  0
   11.7028   -0.9621    0.0000 N   0  0  0  0  0  0  0  0  0  0  0  0
    4.1671   -0.6910    0.0000 N   0  0  0  0  0  0  0  0  0  0  0  0
    7.6730   -0.5961    0.0000 C   0  0  0  0  0  0  0  0  0  0  0  0
    7.6730    0.4039    0.0000 C   0  0  0  0  0  0  0  0  0  0  0  0
    9.2028   -0.0961    0.0000 C   0  0  0  0  0  0  0  0  0  0  0  0
    8.9298   -1.8514    0.0000 C   0  0  0  0  0  0  0  0  0  0  0  0
    6.8069   -1.0961    0.0000 C   0  0  0  0  0  0  0  0  0  0  0  0
    6.8069    0.9039    0.0000 C   0  0  0  0  0  0  0  0  0  0  0  0
    8.9298    1.6592    0.0000 C   0  0  0  0  0  0  0  0  0  0  0  0
    5.9409   -0.5961    0.0000 C   0  0  0  0  0  0  0  0  0  0  0  0
   10.2028   -0.0961    0.0000 C   0  0  0  0  0  0  0  0  0  0  0  0
    5.9409    0.4039    0.0000 C   0  0  0  0  0  0  0  0  0  0  0  0
    8.2620   -2.5956    0.0000 C   0  0  0  0  0  0  0  0  0  0  0  0
    5.0749   -1.0961    0.0000 C   0  0  0  0  0  0  0  0  0  0  0  0
    9.9083    1.8654    0.0000 C   0  0  0  0  0  0  0  0  0  0  0  0
    8.2620    2.4035    0.0000 C   0  0  0  0  0  0  0  0  0  0  0  0
   10.7028   -0.9621    0.0000 C   0  0  0  0  0  0  0  0  0  0  0  0
   10.2190    2.8159    0.0000 C   0  0  0  0  0  0  0  0  0  0  0  0
    8.5726    3.3540    0.0000 C   0  0  0  0  0  0  0  0  0  0  0  0
    4.0000   -2.2940    0.0000 C   0  0  0  0  0  0  0  0  0  0  0  0
    3.5000   -1.4280    0.0000 C   0  0  0  0  0  0  0  0  0  0  0  0
    9.5512    3.5602    0.0000 C   0  0  0  0  0  0  0  0  0  0  0  0
   12.2028   -1.8282    0.0000 C   0  0  0  0  0  0  0  0  0  0  0  0
   12.2028   -0.0961    0.0000 C   0  0  0  0  0  0  0  0  0  0  0  0
    3.5000   -3.1600    0.0000 C   0  0  0  0  0  0  0  0  0  0  0  0
    2.5000   -1.4280    0.0000 C   0  0  0  0  0  0  0  0  0  0  0  0
   11.7028   -2.6942    0.0000 C   0  0  0  0  0  0  0  0  0  0  0  0
   13.2028   -1.8282    0.0000 C   0  0  0  0  0  0  0  0  0  0  0  0
    2.5000   -3.1600    0.0000 C   0  0  0  0  0  0  0  0  0  0  0  0
    2.0000   -2.2940    0.0000 C   0  0  0  0  0  0  0  0  0  0  0  0
   12.2028   -3.5602    0.0000 C   0  0  0  0  0  0  0  0  0  0  0  0
   13.7028   -2.6942    0.0000 C   0  0  0  0  0  0  0  0  0  0  0  0
   13.2028   -3.5602    0.0000 C   0  0  0  0  0  0  0  0  0  0  0  0
    9.3124   -2.3392    0.0000 H   0  0  0  0  0  0  0  0  0  0  0  0
    9.4767   -1.5593    0.0000 H   0  0  0  0  0  0  0  0  0  0  0  0
    6.8069   -1.7161    0.0000 H   0  0  0  0  0  0  0  0  0  0  0  0
    6.8069    1.5239    0.0000 H   0  0  0  0  0  0  0  0  0  0  0  0
   10.5128    0.4408    0.0000 H   0  0  0  0  0  0  0  0  0  0  0  0
    5.4040    0.7139    0.0000 H   0  0  0  0  0  0  0  0  0  0  0  0
    7.8005   -2.1816    0.0000 H   0  0  0  0  0  0  0  0  0  0  0  0
    7.8479   -3.0571    0.0000 H   0  0  0  0  0  0  0  0  0  0  0  0
    8.7234   -3.0097    0.0000 H   0  0  0  0  0  0  0  0  0  0  0  0
   10.3224    1.4039    0.0000 H   0  0  0  0  0  0  0  0  0  0  0  0
    7.6553    2.2756    0.0000 H   0  0  0  0  0  0  0  0  0  0  0  0
   10.3928   -1.4991    0.0000 H   0  0  0  0  0  0  0  0  0  0  0  0
   10.8257    2.9438    0.0000 H   0  0  0  0  0  0  0  0  0  0  0  0
    8.1586    3.8154    0.0000 H   0  0  0  0  0  0  0  0  0  0  0  0
    9.7438    4.1495    0.0000 H   0  0  0  0  0  0  0  0  0  0  0  0
   12.7397   -0.4061    0.0000 H   0  0  0  0  0  0  0  0  0  0  0  0
   12.5128    0.4408    0.0000 H   0  0  0  0  0  0  0  0  0  0  0  0
   11.6658    0.2139    0.0000 H   0  0  0  0  0  0  0  0  0  0  0  0
    3.8100   -3.6970    0.0000 H   0  0  0  0  0  0  0  0  0  0  0  0
    2.1900   -0.8911    0.0000 H   0  0  0  0  0  0  0  0  0  0  0  0
   11.0828   -2.6942    0.0000 H   0  0  0  0  0  0  0  0  0  0  0  0
   13.5128   -1.2912    0.0000 H   0  0  0  0  0  0  0  0  0  0  0  0
    2.1900   -3.6970    0.0000 H   0  0  0  0  0  0  0  0  0  0  0  0
    1.3800   -2.2940    0.0000 H   0  0  0  0  0  0  0  0  0  0  0  0
   11.8928   -4.0971    0.0000 H   0  0  0  0  0  0  0  0  0  0  0  0
   14.3228   -2.6942    0.0000 H   0  0  0  0  0  0  0  0  0  0  0  0
   13.5128   -4.0971    0.0000 H   0  0  0  0  0  0  0  0  0  0  0  0
  1 17  1  0  0  0  0
  1 23  1  0  0  0  0
  2  6  1  0  0  0  0
  2  8  2  0  0  0  0
  2  9  1  0  0  0  0
  3  7  1  0  0  0  0
  3  8  1  0  0  0  0
  3 12  1  0  0  0  0
  4 20  1  0  0  0  0
  4 26  1  0  0  0  0
  4 27  1  0  0  0  0
  5 17  2  0  0  0  0
  5 24  1  0  0  0  0
  6  7  2  0  0  0  0
  6 10  1  0  0  0  0
  7 11  1  0  0  0  0
  8 14  1  0  0  0  0
  9 16  1  0  0  0  0
  9 37  1  0  0  0  0
  9 38  1  0  0  0  0
 10 13  2  0  0  0  0
 10 39  1  0  0  0  0
 11 15  2  0  0  0  0
 11 40  1  0  0  0  0
 12 18  2  0  0  0  0
 12 19  1  0  0  0  0
 13 15  1  0  0  0  0
 13 17  1  0  0  0  0
 14 20  2  0  0  0  0
 14 41  1  0  0  0  0
 15 42  1  0  0  0  0
 16 43  1  0  0  0  0
 16 44  1  0  0  0  0
 16 45  1  0  0  0  0
 18 21  1  0  0  0  0
 18 46  1  0  0  0  0
 19 22  2  0  0  0  0
 19 47  1  0  0  0  0
 20 48  1  0  0  0  0
 21 25  2  0  0  0  0
 21 49  1  0  0  0  0
 22 25  1  0  0  0  0
 22 50  1  0  0  0  0
 23 24  1  0  0  0  0
 23 28  2  0  0  0  0
 24 29  2  0  0  0  0
 25 51  1  0  0  0  0
 26 30  2  0  0  0  0
 26 31  1  0  0  0  0
 27 52  1  0  0  0  0
 27 53  1  0  0  0  0
 27 54  1  0  0  0  0
 28 32  1  0  0  0  0
 28 55  1  0  0  0  0
 29 33  1  0  0  0  0
 29 56  1  0  0  0  0
 30 34  1  0  0  0  0
 30 57  1  0  0  0  0
 31 35  2  0  0  0  0
 31 58  1  0  0  0  0
 32 33  2  0  0  0  0
 32 59  1  0  0  0  0
 33 60  1  0  0  0  0
 34 36  2  0  0  0  0
 34 61  1  0  0  0  0
 35 36  1  0  0  0  0
 35 62  1  0  0  0  0
 36 63  1  0  0  0  0
M  CHG  1   2   1
M  END
> <PUBCHEM_COMPOUND_CID>
2326992

> <PUBCHEM_COMPOUND_CANONICALIZED>
1

> <PUBCHEM_CACTVS_COMPLEXITY>
732

> <PUBCHEM_CACTVS_HBOND_ACCEPTOR>
3

> <PUBCHEM_CACTVS_HBOND_DONOR>
0

> <PUBCHEM_CACTVS_ROTATABLE_BOND>
6

> <PUBCHEM_CACTVS_SUBSKEYS>
AAADceB7gABAAAAAAAAAAAAAAAAAAWLAAAAwYMGAAAAAAFgB/gAAHAQAAAAADAjBXwQz0bcMEAikAyZmZACD8K1hGrhJ2Dw4dJiIaOLgmZGUIAhogALoyCcQgAAOCAAAQAAAASAQAACAAAACQAAAAAAAAA==

> <PUBCHEM_IUPAC_OPENEYE_NAME>
N-[(E)-2-[5-(1,3-benzothiazol-2-yl)-3-ethyl-1-phenyl-benzimidazol-3-ium-2-yl]vinyl]-N-methyl-aniline

> <PUBCHEM_IUPAC_CAS_NAME>
N-[(E)-2-[5-(1,3-benzothiazol-2-yl)-3-ethyl-1-phenyl-2-benzimidazol-3-iumyl]ethenyl]-N-methylaniline

> <PUBCHEM_IUPAC_NAME>
N-[(E)-2-[5-(1,3-benzothiazol-2-yl)-3-ethyl-1-phenylbenzimidazol-3-ium-2-yl]ethenyl]-N-methylaniline

> <PUBCHEM_IUPAC_SYSTEMATIC_NAME>
N-[(E)-2-[5-(1,3-benzothiazol-2-yl)-3-ethyl-1-phenyl-benzimidazol-3-ium-2-yl]ethenyl]-N-methyl-aniline

> <PUBCHEM_IUPAC_TRADITIONAL_NAME>
[(E)-2-[5-(1,3-benzothiazol-2-yl)-3-ethyl-1-phenyl-benzimidazol-3-ium-2-yl]vinyl]-methyl-phenyl-amine

> <PUBCHEM_IUPAC_INCHI>
InChI=1S/C31H27N4S/c1-3-34-28-22-23(31-32-26-16-10-11-17-29(26)36-31)18-19-27(28)35(25-14-8-5-9-15-25)30(34)20-21-33(2)24-12-6-4-7-13-24/h4-22H,3H2,1-2H3/q+1

> <PUBCHEM_IUPAC_INCHIKEY>
OTHITMYLBRCVIT-UHFFFAOYSA-N

> <PUBCHEM_XLOGP3_AA>
7.8

> <PUBCHEM_EXACT_MASS>
487.196

> <PUBCHEM_MOLECULAR_FORMULA>
C31H27N4S+

> <PUBCHEM_MOLECULAR_WEIGHT>
487.645

> <PUBCHEM_OPENEYE_CAN_SMILES>
CC[N+]1=C(N(C2=C1C=C(C=C2)C3=NC4=CC=CC=C4S3)C5=CC=CC=C5)C=CN(C)C6=CC=CC=C6

> <PUBCHEM_OPENEYE_ISO_SMILES>
CC[N+]1=C(N(C2=C1C=C(C=C2)C3=NC4=CC=CC=C4S3)C5=CC=CC=C5)/C=C/N(C)C6=CC=CC=C6

> <PUBCHEM_CACTVS_TPSA>
53.2

> <PUBCHEM_MONOISOTOPIC_WEIGHT>
487.196

> <PUBCHEM_TOTAL_CHARGE>
1

> <PUBCHEM_HEAVY_ATOM_COUNT>
36

> <PUBCHEM_ATOM_DEF_STEREO_COUNT>
0

> <PUBCHEM_ATOM_UDEF_STEREO_COUNT>
0

> <PUBCHEM_BOND_DEF_STEREO_COUNT>
1

> <PUBCHEM_BOND_UDEF_STEREO_COUNT>
0

> <PUBCHEM_ISOTOPIC_ATOM_COUNT>
0

> <PUBCHEM_COMPONENT_COUNT>
1

> <PUBCHEM_CACTVS_TAUTO_COUNT>
1

> <PUBCHEM_COORDINATE_TYPE>
1
5
255

> <PUBCHEM_BONDANNOTATIONS>
1  17  8
1  23  8
10  13  8
11  15  8
12  18  8
12  19  8
13  15  8
18  21  8
19  22  8
2  6  8
2  8  8
21  25  8
22  25  8
23  24  8
23  28  8
24  29  8
26  30  8
26  31  8
28  32  8
29  33  8
3  7  8
3  8  8
30  34  8
31  35  8
32  33  8
34  36  8
35  36  8
5  17  8
5  24  8
6  10  8
6  7  8
7  11  8

$$$$
9911830
  -OEChem-11021605012D

 51 54  0     0  0  0  0  0  0999 V2000
    8.9443    1.3851    0.0000 Cl  0  0  0  0  0  0  0  0  0  0  0  0
    5.4804    1.4252    0.0000 O   0  0  0  0  0  0  0  0  0  0  0  0
    2.0000    2.4597    0.0000 O   0  0  0  0  0  0  0  0  0  0  0  0
    2.0000    4.4597    0.0000 O   0  0  0  0  0  0  0  0  0  0  0  0
   10.2404   -4.6691    0.0000 O   0  0  0  0  0  0  0  0  0  0  0  0
    8.0379   -2.1047    0.0000 O   0  0  0  0  0  0  0  0  0  0  0  0
    5.4920    4.4944    0.0000 N   0  0  0  0  0  0  0  0  0  0  0  0
    8.9212   -0.6148    0.0000 N   0  0  0  0  0  0  0  0  0  0  0  0
    9.7698   -2.1247    0.0000 N   0  0  0  0  0  0  0  0  0  0  0  0
   10.5604   -3.7217    0.0000 N   0  0  0  0  0  0  0  0  0  0  0  0
    4.5981    2.9597    0.0000 C   0  0  0  0  0  0  0  0  0  0  0  0
    4.5981    3.9597    0.0000 C   0  0  0  0  0  0  0  0  0  0  0  0
    5.4920    2.4251    0.0000 C   0  0  0  0  0  0  0  0  0  0  0  0
    3.7320    2.4597    0.0000 C   0  0  0  0  0  0  0  0  0  0  0  0
    2.8660    2.9597    0.0000 C   0  0  0  0  0  0  0  0  0  0  0  0
    3.7320    4.4597    0.0000 C   0  0  0  0  0  0  0  0  0  0  0  0
    2.8660    3.9597    0.0000 C   0  0  0  0  0  0  0  0  0  0  0  0
    6.3981    2.9389    0.0000 C   0  0  0  0  0  0  0  0  0  0  0  0
    6.3406    0.9152    0.0000 C   0  0  0  0  0  0  0  0  0  0  0  0
    6.3981    3.9806    0.0000 C   0  0  0  0  0  0  0  0  0  0  0  0
    8.0610   -0.1048    0.0000 C   0  0  0  0  0  0  0  0  0  0  0  0
    7.2124    1.4051    0.0000 C   0  0  0  0  0  0  0  0  0  0  0  0
    6.3291   -0.0848    0.0000 C   0  0  0  0  0  0  0  0  0  0  0  0
    8.0726    0.8951    0.0000 C   0  0  0  0  0  0  0  0  0  0  0  0
    7.1893   -0.5947    0.0000 C   0  0  0  0  0  0  0  0  0  0  0  0
    8.9096   -1.6147    0.0000 C   0  0  0  0  0  0  0  0  0  0  0  0
    2.0000    1.4597    0.0000 C   0  0  0  0  0  0  0  0  0  0  0  0
    9.7583   -3.1246    0.0000 C   0  0  0  0  0  0  0  0  0  0  0  0
    2.0000    5.4597    0.0000 C   0  0  0  0  0  0  0  0  0  0  0  0
    8.9425   -3.7030    0.0000 C   0  0  0  0  0  0  0  0  0  0  0  0
    9.2405   -4.6576    0.0000 C   0  0  0  0  0  0  0  0  0  0  0  0
    8.6434   -5.4597    0.0000 C   0  0  0  0  0  0  0  0  0  0  0  0
    3.7320    1.8397    0.0000 H   0  0  0  0  0  0  0  0  0  0  0  0
    3.7320    5.0797    0.0000 H   0  0  0  0  0  0  0  0  0  0  0  0
    6.9338    2.6269    0.0000 H   0  0  0  0  0  0  0  0  0  0  0  0
    6.9338    4.2926    0.0000 H   0  0  0  0  0  0  0  0  0  0  0  0
    7.2196    2.0251    0.0000 H   0  0  0  0  0  0  0  0  0  0  0  0
    5.7886   -0.3885    0.0000 H   0  0  0  0  0  0  0  0  0  0  0  0
    7.1821   -1.2147    0.0000 H   0  0  0  0  0  0  0  0  0  0  0  0
    9.4617   -0.3110    0.0000 H   0  0  0  0  0  0  0  0  0  0  0  0
   10.3103   -1.8209    0.0000 H   0  0  0  0  0  0  0  0  0  0  0  0
    1.3800    1.4597    0.0000 H   0  0  0  0  0  0  0  0  0  0  0  0
    2.0000    0.8397    0.0000 H   0  0  0  0  0  0  0  0  0  0  0  0
    2.6200    1.4597    0.0000 H   0  0  0  0  0  0  0  0  0  0  0  0
    2.6200    5.4597    0.0000 H   0  0  0  0  0  0  0  0  0  0  0  0
    2.0000    6.0797    0.0000 H   0  0  0  0  0  0  0  0  0  0  0  0
    1.3800    5.4597    0.0000 H   0  0  0  0  0  0  0  0  0  0  0  0
    8.3551   -3.5046    0.0000 H   0  0  0  0  0  0  0  0  0  0  0  0
    8.1460   -5.0895    0.0000 H   0  0  0  0  0  0  0  0  0  0  0  0
    8.2732   -5.9571    0.0000 H   0  0  0  0  0  0  0  0  0  0  0  0
    9.1407   -5.8300    0.0000 H   0  0  0  0  0  0  0  0  0  0  0  0
  1 24  1  0  0  0  0
  2 13  1  0  0  0  0
  2 19  1  0  0  0  0
  3 15  1  0  0  0  0
  3 27  1  0  0  0  0
  4 17  1  0  0  0  0
  4 29  1  0  0  0  0
  5 10  1  0  0  0  0
  5 31  1  0  0  0  0
  6 26  2  0  0  0  0
  7 12  2  0  0  0  0
  7 20  1  0  0  0  0
  8 21  1  0  0  0  0
  8 26  1  0  0  0  0
  8 40  1  0  0  0  0
  9 26  1  0  0  0  0
  9 28  1  0  0  0  0
  9 41  1  0  0  0  0
 10 28  2  0  0  0  0
 11 12  1  0  0  0  0
 11 13  2  0  0  0  0
 11 14  1  0  0  0  0
 12 16  1  0  0  0  0
 13 18  1  0  0  0  0
 14 15  2  0  0  0  0
 14 33  1  0  0  0  0
 15 17  1  0  0  0  0
 16 17  2  0  0  0  0
 16 34  1  0  0  0  0
 18 20  2  0  0  0  0
 18 35  1  0  0  0  0
 19 22  2  0  0  0  0
 19 23  1  0  0  0  0
 20 36  1  0  0  0  0
 21 24  2  0  0  0  0
 21 25  1  0  0  0  0
 22 24  1  0  0  0  0
 22 37  1  0  0  0  0
 23 25  2  0  0  0  0
 23 38  1  0  0  0  0
 25 39  1  0  0  0  0
 27 42  1  0  0  0  0
 27 43  1  0  0  0  0
 27 44  1  0  0  0  0
 28 30  1  0  0  0  0
 29 45  1  0  0  0  0
 29 46  1  0  0  0  0
 29 47  1  0  0  0  0
 30 31  2  0  0  0  0
 30 48  1  0  0  0  0
 31 32  1  0  0  0  0
 32 49  1  0  0  0  0
 32 50  1  0  0  0  0
 32 51  1  0  0  0  0
M  END
> <PUBCHEM_COMPOUND_CID>
9911830

> <PUBCHEM_COMPOUND_CANONICALIZED>
1

> <PUBCHEM_CACTVS_COMPLEXITY>
631

> <PUBCHEM_CACTVS_HBOND_ACCEPTOR>
7

> <PUBCHEM_CACTVS_HBOND_DONOR>
2

> <PUBCHEM_CACTVS_ROTATABLE_BOND>
6

> <PUBCHEM_CACTVS_SUBSKEYS>
AAADceB7uAAEAAAAAAAAAAAAAAAAAWAAAAA8YIAAAAAAAACx/AAAHgIUAAAADA7BniY/9vLYFACpA7Z3dgCCiCA1JyAp2CE+7tqNJurFs5vGOKru1RvK6Gfw8L8OIEABAwACQBBAgAIGAASAIAAAAAAAAA==

> <PUBCHEM_IUPAC_OPENEYE_NAME>
1-[2-chloro-4-[(6,7-dimethoxy-4-quinolyl)oxy]phenyl]-3-(5-methylisoxazol-3-yl)urea

> <PUBCHEM_IUPAC_CAS_NAME>
1-[2-chloro-4-[(6,7-dimethoxy-4-quinolinyl)oxy]phenyl]-3-(5-methyl-3-isoxazolyl)urea

> <PUBCHEM_IUPAC_NAME>
1-[2-chloro-4-(6,7-dimethoxyquinolin-4-yl)oxyphenyl]-3-(5-methyl-1,2-oxazol-3-yl)urea

> <PUBCHEM_IUPAC_SYSTEMATIC_NAME>
1-[2-chloranyl-4-(6,7-dimethoxyquinolin-4-yl)oxy-phenyl]-3-(5-methyl-1,2-oxazol-3-yl)urea

> <PUBCHEM_IUPAC_TRADITIONAL_NAME>
1-[2-chloro-4-[(6,7-dimethoxy-4-quinolyl)oxy]phenyl]-3-(5-methylisoxazol-3-yl)urea

> <PUBCHEM_IUPAC_INCHI>
InChI=1S/C22H19ClN4O5/c1-12-8-21(27-32-12)26-22(28)25-16-5-4-13(9-15(16)23)31-18-6-7-24-17-11-20(30-3)19(29-2)10-14(17)18/h4-11H,1-3H3,(H2,25,26,27,28)

> <PUBCHEM_IUPAC_INCHIKEY>
SPMVMDHWKHCIDT-UHFFFAOYSA-N

> <PUBCHEM_XLOGP3_AA>
4

> <PUBCHEM_EXACT_MASS>
454.104

> <PUBCHEM_MOLECULAR_FORMULA>
C22H19ClN4O5

> <PUBCHEM_MOLECULAR_WEIGHT>
454.867

> <PUBCHEM_OPENEYE_CAN_SMILES>
CC1=CC(=NO1)NC(=O)NC2=C(C=C(C=C2)OC3=C4C=C(C(=CC4=NC=C3)OC)OC)Cl

> <PUBCHEM_OPENEYE_ISO_SMILES>
CC1=CC(=NO1)NC(=O)NC2=C(C=C(C=C2)OC3=C4C=C(C(=CC4=NC=C3)OC)OC)Cl

> <PUBCHEM_CACTVS_TPSA>
108

> <PUBCHEM_MONOISOTOPIC_WEIGHT>
454.104

> <PUBCHEM_TOTAL_CHARGE>
0

> <PUBCHEM_HEAVY_ATOM_COUNT>
32

> <PUBCHEM_ATOM_DEF_STEREO_COUNT>
0

> <PUBCHEM_ATOM_UDEF_STEREO_COUNT>
0

> <PUBCHEM_BOND_DEF_STEREO_COUNT>
0

> <PUBCHEM_BOND_UDEF_STEREO_COUNT>
0

> <PUBCHEM_ISOTOPIC_ATOM_COUNT>
0

> <PUBCHEM_COMPONENT_COUNT>
1

> <PUBCHEM_CACTVS_TAUTO_COUNT>
13

> <PUBCHEM_COORDINATE_TYPE>
1
5
255

> <PUBCHEM_BONDANNOTATIONS>
10  28  8
11  12  8
11  13  8
11  14  8
12  16  8
13  18  8
14  15  8
15  17  8
16  17  8
18  20  8
19  22  8
19  23  8
21  24  8
21  25  8
22  24  8
23  25  8
28  30  8
30  31  8
5  10  8
5  31  8
7  12  8
7  20  8

$$$$
6419764
  -OEChem-11021605012D

 46 49  0     1  0  0  0  0  0999 V2000
    4.3211   -0.2734    0.0000 O   0  0  0  0  0  0  0  0  0  0  0  0
    5.2531    2.5782    0.0000 O   0  0  0  0  0  0  0  0  0  0  0  0
    6.5348   -4.5282    0.0000 O   0  0  0  0  0  0  0  0  0  0  0  0
    3.9174    4.0668    0.0000 O   0  0  0  0  0  0  0  0  0  0  0  0
    4.6783   -3.5777    0.0000 N   0  0  0  0  0  0  0  0  0  0  0  0
    4.9889   -1.0177    0.0000 N   0  0  0  0  0  0  0  0  0  0  0  0
    7.7917   -3.2730    0.0000 N   0  0  0  0  0  0  0  0  0  0  0  0
    5.2619   -2.7730    0.0000 C   0  0  0  0  0  0  0  0  0  0  0  0
    4.6783   -1.9682    0.0000 C   0  0  0  0  0  0  0  0  0  0  0  0
    3.7320   -2.2730    0.0000 C   0  0  0  0  0  0  0  0  0  0  0  0
    3.7320   -3.2730    0.0000 C   0  0  0  0  0  0  0  0  0  0  0  0
    6.2619   -2.7730    0.0000 C   0  0  0  0  0  0  0  0  0  0  0  0
    6.8455   -1.9682    0.0000 C   0  0  0  0  0  0  0  0  0  0  0  0
    2.8660   -1.7730    0.0000 C   0  0  0  0  0  0  0  0  0  0  0  0
    3.9639    1.4214    0.0000 C   0  0  0  0  0  0  0  0  0  0  0  0
    7.7960   -2.2789    0.0000 C   0  0  0  0  0  0  0  0  0  0  0  0
    2.8660   -3.7730    0.0000 C   0  0  0  0  0  0  0  0  0  0  0  0
    6.8455   -3.5777    0.0000 C   0  0  0  0  0  0  0  0  0  0  0  0
    4.6318    0.6771    0.0000 C   0  0  0  0  0  0  0  0  0  0  0  0
    4.2746    2.3719    0.0000 C   0  0  3  0  0  0  0  0  0  0  0  0
    6.6393   -0.9897    0.0000 C   0  0  0  0  0  0  0  0  0  0  0  0
    2.0000   -2.2730    0.0000 C   0  0  0  0  0  0  0  0  0  0  0  0
    2.0000   -3.2730    0.0000 C   0  0  0  0  0  0  0  0  0  0  0  0
    8.5403   -1.6111    0.0000 C   0  0  0  0  0  0  0  0  0  0  0  0
    3.6067    3.1162    0.0000 C   0  0  0  0  0  0  0  0  0  0  0  0
    7.3836   -0.3219    0.0000 C   0  0  0  0  0  0  0  0  0  0  0  0
    8.3341   -0.6325    0.0000 C   0  0  0  0  0  0  0  0  0  0  0  0
    4.8709   -4.1670    0.0000 H   0  0  0  0  0  0  0  0  0  0  0  0
    5.5956   -0.8899    0.0000 H   0  0  0  0  0  0  0  0  0  0  0  0
    3.4170    1.7134    0.0000 H   0  0  0  0  0  0  0  0  0  0  0  0
    3.5814    0.9335    0.0000 H   0  0  0  0  0  0  0  0  0  0  0  0
    2.8660   -1.1530    0.0000 H   0  0  0  0  0  0  0  0  0  0  0  0
    2.8660   -4.3930    0.0000 H   0  0  0  0  0  0  0  0  0  0  0  0
    4.6886    1.9105    0.0000 H   0  0  0  0  0  0  0  0  0  0  0  0
    5.1787    0.3851    0.0000 H   0  0  0  0  0  0  0  0  0  0  0  0
    5.0143    1.1650    0.0000 H   0  0  0  0  0  0  0  0  0  0  0  0
    6.0500   -0.7971    0.0000 H   0  0  0  0  0  0  0  0  0  0  0  0
    1.4631   -1.9630    0.0000 H   0  0  0  0  0  0  0  0  0  0  0  0
    1.4631   -3.5830    0.0000 H   0  0  0  0  0  0  0  0  0  0  0  0
    9.1296   -1.8037    0.0000 H   0  0  0  0  0  0  0  0  0  0  0  0
    3.0598    3.4082    0.0000 H   0  0  0  0  0  0  0  0  0  0  0  0
    3.2242    2.6283    0.0000 H   0  0  0  0  0  0  0  0  0  0  0  0
    7.2557    0.2848    0.0000 H   0  0  0  0  0  0  0  0  0  0  0  0
    8.7956   -0.2185    0.0000 H   0  0  0  0  0  0  0  0  0  0  0  0
    5.4457    3.1675    0.0000 H   0  0  0  0  0  0  0  0  0  0  0  0
    3.5033    4.5282    0.0000 H   0  0  0  0  0  0  0  0  0  0  0  0
  1  6  1  0  0  0  0
  1 19  1  0  0  0  0
  2 20  1  0  0  0  0
  2 45  1  0  0  0  0
  3 18  2  0  0  0  0
  4 25  1  0  0  0  0
  4 46  1  0  0  0  0
  5  8  1  0  0  0  0
  5 11  1  0  0  0  0
  5 28  1  0  0  0  0
  6  9  1  0  0  0  0
  6 29  1  0  0  0  0
  7 16  2  0  0  0  0
  7 18  1  0  0  0  0
  8  9  2  0  0  0  0
  8 12  1  0  0  0  0
  9 10  1  0  0  0  0
 10 11  1  0  0  0  0
 10 14  2  0  0  0  0
 11 17  2  0  0  0  0
 12 13  2  0  0  0  0
 12 18  1  0  0  0  0
 13 16  1  0  0  0  0
 13 21  1  0  0  0  0
 14 22  1  0  0  0  0
 14 32  1  0  0  0  0
 15 19  1  0  0  0  0
 15 20  1  0  0  0  0
 15 30  1  0  0  0  0
 15 31  1  0  0  0  0
 16 24  1  0  0  0  0
 17 23  1  0  0  0  0
 17 33  1  0  0  0  0
 19 35  1  0  0  0  0
 19 36  1  0  0  0  0
 20 25  1  0  0  0  0
 20 34  1  0  0  0  0
 21 26  2  0  0  0  0
 21 37  1  0  0  0  0
 22 23  2  0  0  0  0
 22 38  1  0  0  0  0
 23 39  1  0  0  0  0
 24 27  2  0  0  0  0
 24 40  1  0  0  0  0
 25 41  1  0  0  0  0
 25 42  1  0  0  0  0
 26 27  1  0  0  0  0
 26 43  1  0  0  0  0
 27 44  1  0  0  0  0
M  END
> <PUBCHEM_COMPOUND_CID>
6419764

> <PUBCHEM_COMPOUND_CANONICALIZED>
1

> <PUBCHEM_CACTVS_COMPLEXITY>
712

> <PUBCHEM_CACTVS_HBOND_ACCEPTOR>
5

> <PUBCHEM_CACTVS_HBOND_DONOR>
4

> <PUBCHEM_CACTVS_ROTATABLE_BOND>
7

> <PUBCHEM_CACTVS_SUBSKEYS>
AAADceB7OAAAAAAAAAAAAAAAAAAAAWIAAAAwQAAAAAAAAFgB8AAAHgAUCAAADByhngIwwPLZkgCoAyVyVACCgCAhEiAomSEwdNgJcPrA1dGUZAhlkADJyQdciICOAAAAAAACAAAAAAAAAAQAAAAAAAAAAA==

> <PUBCHEM_IUPAC_OPENEYE_NAME>
3-[3-(3,4-dihydroxybutoxyamino)-1H-indol-2-yl]indol-2-one

> <PUBCHEM_IUPAC_CAS_NAME>
3-[3-(3,4-dihydroxybutoxyamino)-1H-indol-2-yl]-2-indolone

> <PUBCHEM_IUPAC_NAME>
3-[3-(3,4-dihydroxybutoxyamino)-1H-indol-2-yl]indol-2-one

> <PUBCHEM_IUPAC_SYSTEMATIC_NAME>
3-[3-[3,4-bis(oxidanyl)butoxyamino]-1H-indol-2-yl]indol-2-one

> <PUBCHEM_IUPAC_TRADITIONAL_NAME>
3-[3-(3,4-dihydroxybutoxyamino)-1H-indol-2-yl]indol-2-one

> <PUBCHEM_IUPAC_INCHI>
InChI=1S/C20H19N3O4/c24-11-12(25)9-10-27-23-18-14-6-2-4-8-16(14)21-19(18)17-13-5-1-3-7-15(13)22-20(17)26/h1-8,12,21,23-25H,9-11H2

> <PUBCHEM_IUPAC_INCHIKEY>
CKLAPOFDFZKCPB-UHFFFAOYSA-N

> <PUBCHEM_XLOGP3_AA>
1.8

> <PUBCHEM_EXACT_MASS>
365.138

> <PUBCHEM_MOLECULAR_FORMULA>
C20H19N3O4

> <PUBCHEM_MOLECULAR_WEIGHT>
365.389

> <PUBCHEM_OPENEYE_CAN_SMILES>
C1=CC=C2C(=C1)C(=C(N2)C3=C4C=CC=CC4=NC3=O)NOCCC(CO)O

> <PUBCHEM_OPENEYE_ISO_SMILES>
C1=CC=C2C(=C1)C(=C(N2)C3=C4C=CC=CC4=NC3=O)NOCCC(CO)O

> <PUBCHEM_CACTVS_TPSA>
107

> <PUBCHEM_MONOISOTOPIC_WEIGHT>
365.138

> <PUBCHEM_TOTAL_CHARGE>
0

> <PUBCHEM_HEAVY_ATOM_COUNT>
27

> <PUBCHEM_ATOM_DEF_STEREO_COUNT>
0

> <PUBCHEM_ATOM_UDEF_STEREO_COUNT>
1

> <PUBCHEM_BOND_DEF_STEREO_COUNT>
0

> <PUBCHEM_BOND_UDEF_STEREO_COUNT>
0

> <PUBCHEM_ISOTOPIC_ATOM_COUNT>
0

> <PUBCHEM_COMPONENT_COUNT>
1

> <PUBCHEM_CACTVS_TAUTO_COUNT>
33

> <PUBCHEM_COORDINATE_TYPE>
1
5
255

> <PUBCHEM_BONDANNOTATIONS>
10  11  8
10  14  8
11  17  8
13  16  8
13  21  8
14  22  8
16  24  8
17  23  8
20  2  3
21  26  8
22  23  8
24  27  8
26  27  8
5  11  8
5  8  8
8  9  8
9  10  8

$$$$
9860529
  -OEChem-11021605012D

 36 39  0     0  0  0  0  0  0999 V2000
    2.0038    1.7635    0.0000 O   0  0  0  0  0  0  0  0  0  0  0  0
    5.5022    0.7673    0.0000 O   0  0  0  0  0  0  0  0  0  0  0  0
    5.5138   -2.3019    0.0000 O   0  0  0  0  0  0  0  0  0  0  0  0
    3.7320    0.7568    0.0000 N   0  0  0  0  0  0  0  0  0  0  0  0
    2.8641    0.2602    0.0000 C   0  0  0  0  0  0  0  0  0  0  0  0
    3.7359    1.7568    0.0000 C   0  0  0  0  0  0  0  0  0  0  0  0
    4.5961    0.2535    0.0000 C   0  0  0  0  0  0  0  0  0  0  0  0
    2.0000    0.7635    0.0000 C   0  0  0  0  0  0  0  0  0  0  0  0
    2.8718    2.2601    0.0000 C   0  0  0  0  0  0  0  0  0  0  0  0
    6.3961    0.2327    0.0000 C   0  0  0  0  0  0  0  0  0  0  0  0
    6.3961   -0.7673    0.0000 C   0  0  0  0  0  0  0  0  0  0  0  0
    7.2622    0.7327    0.0000 C   0  0  0  0  0  0  0  0  0  0  0  0
    4.5961   -0.7881    0.0000 C   0  0  0  0  0  0  0  0  0  0  0  0
    5.5022   -1.3020    0.0000 C   0  0  0  0  0  0  0  0  0  0  0  0
    8.1282    0.2327    0.0000 C   0  0  0  0  0  0  0  0  0  0  0  0
    7.2622   -1.2673    0.0000 C   0  0  0  0  0  0  0  0  0  0  0  0
    8.1282   -0.7673    0.0000 C   0  0  0  0  0  0  0  0  0  0  0  0
    7.2461    1.7742    0.0000 C   0  0  0  0  0  0  0  0  0  0  0  0
    9.0382    0.7395    0.0000 C   0  0  0  0  0  0  0  0  0  0  0  0
    8.1441    2.3019    0.0000 C   0  0  0  0  0  0  0  0  0  0  0  0
    9.0462    1.7811    0.0000 C   0  0  0  0  0  0  0  0  0  0  0  0
    2.4637   -0.2132    0.0000 H   0  0  0  0  0  0  0  0  0  0  0  0
    3.2608   -0.2163    0.0000 H   0  0  0  0  0  0  0  0  0  0  0  0
    4.3460    1.6468    0.0000 H   0  0  0  0  0  0  0  0  0  0  0  0
    3.9502    2.3386    0.0000 H   0  0  0  0  0  0  0  0  0  0  0  0
    1.3898    0.8735    0.0000 H   0  0  0  0  0  0  0  0  0  0  0  0
    1.7857    0.1817    0.0000 H   0  0  0  0  0  0  0  0  0  0  0  0
    3.2722    2.7336    0.0000 H   0  0  0  0  0  0  0  0  0  0  0  0
    2.4751    2.7366    0.0000 H   0  0  0  0  0  0  0  0  0  0  0  0
    4.0604   -1.1002    0.0000 H   0  0  0  0  0  0  0  0  0  0  0  0
    7.2622   -1.8873    0.0000 H   0  0  0  0  0  0  0  0  0  0  0  0
    8.6651   -1.0773    0.0000 H   0  0  0  0  0  0  0  0  0  0  0  0
    6.7056    2.0779    0.0000 H   0  0  0  0  0  0  0  0  0  0  0  0
    9.5715    0.4233    0.0000 H   0  0  0  0  0  0  0  0  0  0  0  0
    8.1418    2.9219    0.0000 H   0  0  0  0  0  0  0  0  0  0  0  0
    9.5844    2.0890    0.0000 H   0  0  0  0  0  0  0  0  0  0  0  0
  1  8  1  0  0  0  0
  1  9  1  0  0  0  0
  2  7  1  0  0  0  0
  2 10  1  0  0  0  0
  3 14  2  0  0  0  0
  4  5  1  0  0  0  0
  4  6  1  0  0  0  0
  4  7  1  0  0  0  0
  5  8  1  0  0  0  0
  5 22  1  0  0  0  0
  5 23  1  0  0  0  0
  6  9  1  0  0  0  0
  6 24  1  0  0  0  0
  6 25  1  0  0  0  0
  7 13  2  0  0  0  0
  8 26  1  0  0  0  0
  8 27  1  0  0  0  0
  9 28  1  0  0  0  0
  9 29  1  0  0  0  0
 10 11  2  0  0  0  0
 10 12  1  0  0  0  0
 11 14  1  0  0  0  0
 11 16  1  0  0  0  0
 12 15  1  0  0  0  0
 12 18  2  0  0  0  0
 13 14  1  0  0  0  0
 13 30  1  0  0  0  0
 15 17  1  0  0  0  0
 15 19  2  0  0  0  0
 16 17  2  0  0  0  0
 16 31  1  0  0  0  0
 17 32  1  0  0  0  0
 18 20  1  0  0  0  0
 18 33  1  0  0  0  0
 19 21  1  0  0  0  0
 19 34  1  0  0  0  0
 20 21  2  0  0  0  0
 20 35  1  0  0  0  0
 21 36  1  0  0  0  0
M  END
> <PUBCHEM_COMPOUND_CID>
9860529

> <PUBCHEM_COMPOUND_CANONICALIZED>
1

> <PUBCHEM_CACTVS_COMPLEXITY>
441

> <PUBCHEM_CACTVS_HBOND_ACCEPTOR>
4

> <PUBCHEM_CACTVS_HBOND_DONOR>
0

> <PUBCHEM_CACTVS_ROTATABLE_BOND>
1

> <PUBCHEM_CACTVS_SUBSKEYS>
AAADccB6MAAAAAAAAAAAAAAAAAAAAAAAAAA8YIEAAAAAAADBUAAAHgAAAAAADAThmAYwBsMABACIAqBSQAACCAAkIgAIiAEMCMgOJjaENRqLMWAk4BGYqceIyPCOwAADAAAYAACAAAYAADAAAAAAAAAAAA==

> <PUBCHEM_IUPAC_OPENEYE_NAME>
2-morpholinobenzo[h]chromen-4-one

> <PUBCHEM_IUPAC_CAS_NAME>
2-(4-morpholinyl)-4-benzo[h][1]benzopyranone

> <PUBCHEM_IUPAC_NAME>
2-morpholin-4-ylbenzo[h]chromen-4-one

> <PUBCHEM_IUPAC_SYSTEMATIC_NAME>
2-morpholin-4-ylbenzo[h]chromen-4-one

> <PUBCHEM_IUPAC_TRADITIONAL_NAME>
2-morpholinobenzo[h]chromen-4-one

> <PUBCHEM_IUPAC_INCHI>
InChI=1S/C17H15NO3/c19-15-11-16(18-7-9-20-10-8-18)21-17-13-4-2-1-3-12(13)5-6-14(15)17/h1-6,11H,7-10H2

> <PUBCHEM_IUPAC_INCHIKEY>
KKTZALUTXUZPSN-UHFFFAOYSA-N

> <PUBCHEM_XLOGP3_AA>
2.8

> <PUBCHEM_EXACT_MASS>
281.105

> <PUBCHEM_MOLECULAR_FORMULA>
C17H15NO3

> <PUBCHEM_MOLECULAR_WEIGHT>
281.311

> <PUBCHEM_OPENEYE_CAN_SMILES>
C1COCCN1C2=CC(=O)C3=C(O2)C4=CC=CC=C4C=C3

> <PUBCHEM_OPENEYE_ISO_SMILES>
C1COCCN1C2=CC(=O)C3=C(O2)C4=CC=CC=C4C=C3

> <PUBCHEM_CACTVS_TPSA>
38.8

> <PUBCHEM_MONOISOTOPIC_WEIGHT>
281.105

> <PUBCHEM_TOTAL_CHARGE>
0

> <PUBCHEM_HEAVY_ATOM_COUNT>
21

> <PUBCHEM_ATOM_DEF_STEREO_COUNT>
0

> <PUBCHEM_ATOM_UDEF_STEREO_COUNT>
0

> <PUBCHEM_BOND_DEF_STEREO_COUNT>
0

> <PUBCHEM_BOND_UDEF_STEREO_COUNT>
0

> <PUBCHEM_ISOTOPIC_ATOM_COUNT>
0

> <PUBCHEM_COMPONENT_COUNT>
1

> <PUBCHEM_CACTVS_TAUTO_COUNT>
1

> <PUBCHEM_COORDINATE_TYPE>
1
5
255

> <PUBCHEM_BONDANNOTATIONS>
10  11  8
10  12  8
11  14  8
11  16  8
12  15  8
12  18  8
13  14  8
15  17  8
15  19  8
16  17  8
18  20  8
19  21  8
2  10  8
2  7  8
20  21  8
7  13  8

$$$$
6538818
  -OEChem-11021605012D

 37 40  0     0  0  0  0  0  0999 V2000
    2.0000   -2.8085    0.0000 Br  0  0  0  0  0  0  0  0  0  0  0  0
    7.1279   -1.8085    0.0000 O   0  0  0  0  0  0  0  0  0  0  0  0
    3.7714    1.6175    0.0000 O   0  0  0  0  0  0  0  0  0  0  0  0
    2.2714    0.7515    0.0000 O   0  0  0  0  0  0  0  0  0  0  0  0
    5.5443   -2.6132    0.0000 N   0  0  0  0  0  0  0  0  0  0  0  0
    6.8012    0.2515    0.0000 N   0  0  0  0  0  0  0  0  0  0  0  0
    4.2714    0.7515    0.0000 N   0  0  0  0  0  0  0  0  0  0  0  0
    5.5443   -1.0038    0.0000 C   0  0  0  0  0  0  0  0  0  0  0  0
    5.8550   -0.0533    0.0000 C   0  0  0  0  0  0  0  0  0  0  0  0
    4.5981   -1.3085    0.0000 C   0  0  0  0  0  0  0  0  0  0  0  0
    5.2714    0.7515    0.0000 C   0  0  0  0  0  0  0  0  0  0  0  0
    4.5981   -2.3085    0.0000 C   0  0  0  0  0  0  0  0  0  0  0  0
    5.8550    1.5562    0.0000 C   0  0  0  0  0  0  0  0  0  0  0  0
    6.1279   -1.8085    0.0000 C   0  0  0  0  0  0  0  0  0  0  0  0
    6.8055    1.2456    0.0000 C   0  0  0  0  0  0  0  0  0  0  0  0
    3.7320   -0.8085    0.0000 C   0  0  0  0  0  0  0  0  0  0  0  0
    3.7320   -2.8085    0.0000 C   0  0  0  0  0  0  0  0  0  0  0  0
    5.6487    2.5347    0.0000 C   0  0  0  0  0  0  0  0  0  0  0  0
    7.5498    1.9134    0.0000 C   0  0  0  0  0  0  0  0  0  0  0  0
    2.8660   -1.3085    0.0000 C   0  0  0  0  0  0  0  0  0  0  0  0
    2.8660   -2.3085    0.0000 C   0  0  0  0  0  0  0  0  0  0  0  0
    6.3930    3.2026    0.0000 C   0  0  0  0  0  0  0  0  0  0  0  0
    7.3436    2.8919    0.0000 C   0  0  0  0  0  0  0  0  0  0  0  0
    2.7714    1.6175    0.0000 C   0  0  0  0  0  0  0  0  0  0  0  0
    2.2714    2.4835    0.0000 C   0  0  0  0  0  0  0  0  0  0  0  0
    5.7369   -3.2026    0.0000 H   0  0  0  0  0  0  0  0  0  0  0  0
    3.7320   -0.1885    0.0000 H   0  0  0  0  0  0  0  0  0  0  0  0
    3.7320   -3.4285    0.0000 H   0  0  0  0  0  0  0  0  0  0  0  0
    5.0594    2.7273    0.0000 H   0  0  0  0  0  0  0  0  0  0  0  0
    8.1391    1.7208    0.0000 H   0  0  0  0  0  0  0  0  0  0  0  0
    3.9614    0.2145    0.0000 H   0  0  0  0  0  0  0  0  0  0  0  0
    2.3291   -0.9985    0.0000 H   0  0  0  0  0  0  0  0  0  0  0  0
    6.2652    3.8092    0.0000 H   0  0  0  0  0  0  0  0  0  0  0  0
    7.8050    3.3060    0.0000 H   0  0  0  0  0  0  0  0  0  0  0  0
    2.8083    2.7935    0.0000 H   0  0  0  0  0  0  0  0  0  0  0  0
    1.9614    3.0205    0.0000 H   0  0  0  0  0  0  0  0  0  0  0  0
    1.7344    2.1735    0.0000 H   0  0  0  0  0  0  0  0  0  0  0  0
  1 21  1  0  0  0  0
  2 14  2  0  0  0  0
  3  7  1  0  0  0  0
  3 24  1  0  0  0  0
  4 24  2  0  0  0  0
  5 12  1  0  0  0  0
  5 14  1  0  0  0  0
  5 26  1  0  0  0  0
  6  9  1  0  0  0  0
  6 15  2  0  0  0  0
  7 11  1  0  0  0  0
  7 31  1  0  0  0  0
  8  9  2  0  0  0  0
  8 10  1  0  0  0  0
  8 14  1  0  0  0  0
  9 11  1  0  0  0  0
 10 12  2  0  0  0  0
 10 16  1  0  0  0  0
 11 13  2  0  0  0  0
 12 17  1  0  0  0  0
 13 15  1  0  0  0  0
 13 18  1  0  0  0  0
 15 19  1  0  0  0  0
 16 20  2  0  0  0  0
 16 27  1  0  0  0  0
 17 21  2  0  0  0  0
 17 28  1  0  0  0  0
 18 22  2  0  0  0  0
 18 29  1  0  0  0  0
 19 23  2  0  0  0  0
 19 30  1  0  0  0  0
 20 21  1  0  0  0  0
 20 32  1  0  0  0  0
 22 23  1  0  0  0  0
 22 33  1  0  0  0  0
 23 34  1  0  0  0  0
 24 25  1  0  0  0  0
 25 35  1  0  0  0  0
 25 36  1  0  0  0  0
 25 37  1  0  0  0  0
M  END
> <PUBCHEM_COMPOUND_CID>
6538818

> <PUBCHEM_COMPOUND_CANONICALIZED>
1

> <PUBCHEM_CACTVS_COMPLEXITY>
806

> <PUBCHEM_CACTVS_HBOND_ACCEPTOR>
5

> <PUBCHEM_CACTVS_HBOND_DONOR>
2

> <PUBCHEM_CACTVS_ROTATABLE_BOND>
3

> <PUBCHEM_CACTVS_SUBSKEYS>
AAADccB7MAAAEAAAAAAAAAAAAAAAAWIAAAAwQAAAAAAAAFgBAAAAHgBUAAABrAiBmAAyyILQAACoAyXyXACCAAAhAgQoiAEwZPgIYDLAlZGEIAhglADIy1cciICOAgAAAAECAAAEAAAAAgQAAAAAAAAAAA==

> <PUBCHEM_IUPAC_OPENEYE_NAME>
[[(2Z)-2-(6-bromo-2-oxo-indolin-3-ylidene)indol-3-yl]amino] acetate

> <PUBCHEM_IUPAC_CAS_NAME>
acetic acid [[(2Z)-2-(6-bromo-2-oxo-1H-indol-3-ylidene)-3-indolyl]amino] ester

> <PUBCHEM_IUPAC_NAME>
[[(2Z)-2-(6-bromo-2-oxo-1H-indol-3-ylidene)indol-3-yl]amino] acetate

> <PUBCHEM_IUPAC_SYSTEMATIC_NAME>
[[(2Z)-2-(6-bromanyl-2-oxidanylidene-1H-indol-3-ylidene)indol-3-yl]amino] ethanoate

> <PUBCHEM_IUPAC_TRADITIONAL_NAME>
acetic acid [[(2Z)-2-(6-bromo-2-keto-indolin-3-ylidene)indol-3-yl]amino] ester

> <PUBCHEM_IUPAC_INCHI>
InChI=1S/C18H12BrN3O3/c1-9(23)25-22-16-12-4-2-3-5-13(12)20-17(16)15-11-7-6-10(19)8-14(11)21-18(15)24/h2-8,22H,1H3,(H,21,24)/b17-15-

> <PUBCHEM_IUPAC_INCHIKEY>
ORWSYHWTBSHFIV-ICFOKQHNSA-N

> <PUBCHEM_XLOGP3_AA>
2.6

> <PUBCHEM_EXACT_MASS>
397.006

> <PUBCHEM_MOLECULAR_FORMULA>
C18H12BrN3O3

> <PUBCHEM_MOLECULAR_WEIGHT>
398.216

> <PUBCHEM_OPENEYE_CAN_SMILES>
CC(=O)ONC1=C2C=CC=CC2=NC1=C3C4=C(C=C(C=C4)Br)NC3=O

> <PUBCHEM_OPENEYE_ISO_SMILES>
CC(=O)ONC\1=C2C=CC=CC2=N/C1=C\3/C4=C(C=C(C=C4)Br)NC3=O

> <PUBCHEM_CACTVS_TPSA>
79.8

> <PUBCHEM_MONOISOTOPIC_WEIGHT>
397.006

> <PUBCHEM_TOTAL_CHARGE>
0

> <PUBCHEM_HEAVY_ATOM_COUNT>
25

> <PUBCHEM_ATOM_DEF_STEREO_COUNT>
0

> <PUBCHEM_ATOM_UDEF_STEREO_COUNT>
0

> <PUBCHEM_BOND_DEF_STEREO_COUNT>
1

> <PUBCHEM_BOND_UDEF_STEREO_COUNT>
0

> <PUBCHEM_ISOTOPIC_ATOM_COUNT>
0

> <PUBCHEM_COMPONENT_COUNT>
1

> <PUBCHEM_CACTVS_TAUTO_COUNT>
33

> <PUBCHEM_COORDINATE_TYPE>
1
5
255

> <PUBCHEM_BONDANNOTATIONS>
10  12  8
10  16  8
12  17  8
13  15  8
13  18  8
15  19  8
16  20  8
17  21  8
18  22  8
19  23  8
20  21  8
22  23  8

$$$$
11617559
  -OEChem-11021605012D

 49 51  0     0  0  0  0  0  0999 V2000
    4.5981    0.8100    0.0000 O   0  0  0  0  0  0  0  0  0  0  0  0
    2.8660   -0.1900    0.0000 O   0  0  0  0  0  0  0  0  0  0  0  0
    5.4641    5.3100    0.0000 O   0  0  0  0  0  0  0  0  0  0  0  0
    6.3301   -5.1900    0.0000 N   0  0  0  0  0  0  0  0  0  0  0  0
    7.1962   -3.6900    0.0000 N   0  0  0  0  0  0  0  0  0  0  0  0
    4.5981   -5.1900    0.0000 N   0  0  0  0  0  0  0  0  0  0  0  0
    8.0622   -5.1900    0.0000 N   0  0  0  0  0  0  0  0  0  0  0  0
    4.5981   -2.1900    0.0000 C   0  0  0  0  0  0  0  0  0  0  0  0
    4.5981   -3.1900    0.0000 C   0  0  0  0  0  0  0  0  0  0  0  0
    3.7320   -1.6900    0.0000 C   0  0  0  0  0  0  0  0  0  0  0  0
    5.4641   -3.6900    0.0000 C   0  0  0  0  0  0  0  0  0  0  0  0
    4.5981   -0.1900    0.0000 C   0  0  0  0  0  0  0  0  0  0  0  0
    5.4641   -1.6900    0.0000 C   0  0  0  0  0  0  0  0  0  0  0  0
    3.7320   -0.6900    0.0000 C   0  0  0  0  0  0  0  0  0  0  0  0
    5.4641   -0.6900    0.0000 C   0  0  0  0  0  0  0  0  0  0  0  0
    5.4641    1.3100    0.0000 C   0  0  0  0  0  0  0  0  0  0  0  0
    5.4641    2.3100    0.0000 C   0  0  0  0  0  0  0  0  0  0  0  0
    5.4641   -4.6900    0.0000 C   0  0  0  0  0  0  0  0  0  0  0  0
    6.3301   -3.1900    0.0000 C   0  0  0  0  0  0  0  0  0  0  0  0
    4.5981    2.8100    0.0000 C   0  0  0  0  0  0  0  0  0  0  0  0
    6.3301    2.8100    0.0000 C   0  0  0  0  0  0  0  0  0  0  0  0
    4.5981    3.8100    0.0000 C   0  0  0  0  0  0  0  0  0  0  0  0
    6.3301    3.8100    0.0000 C   0  0  0  0  0  0  0  0  0  0  0  0
    5.4641    4.3100    0.0000 C   0  0  0  0  0  0  0  0  0  0  0  0
    7.1962   -4.6900    0.0000 C   0  0  0  0  0  0  0  0  0  0  0  0
    2.0000   -0.6900    0.0000 C   0  0  0  0  0  0  0  0  0  0  0  0
    6.3301    5.8100    0.0000 C   0  0  0  0  0  0  0  0  0  0  0  0
    3.9875   -3.0823    0.0000 H   0  0  0  0  0  0  0  0  0  0  0  0
    4.3860   -3.7726    0.0000 H   0  0  0  0  0  0  0  0  0  0  0  0
    3.1951   -2.0000    0.0000 H   0  0  0  0  0  0  0  0  0  0  0  0
    6.0010   -2.0000    0.0000 H   0  0  0  0  0  0  0  0  0  0  0  0
    6.0010   -0.3800    0.0000 H   0  0  0  0  0  0  0  0  0  0  0  0
    5.6762    0.7274    0.0000 H   0  0  0  0  0  0  0  0  0  0  0  0
    6.0747    1.4177    0.0000 H   0  0  0  0  0  0  0  0  0  0  0  0
    6.3301   -2.5700    0.0000 H   0  0  0  0  0  0  0  0  0  0  0  0
    4.0611    2.5000    0.0000 H   0  0  0  0  0  0  0  0  0  0  0  0
    6.8671    2.5000    0.0000 H   0  0  0  0  0  0  0  0  0  0  0  0
    4.0611    4.1200    0.0000 H   0  0  0  0  0  0  0  0  0  0  0  0
    6.8671    4.1200    0.0000 H   0  0  0  0  0  0  0  0  0  0  0  0
    4.5981   -5.8100    0.0000 H   0  0  0  0  0  0  0  0  0  0  0  0
    4.0611   -4.8800    0.0000 H   0  0  0  0  0  0  0  0  0  0  0  0
    1.6900   -0.1531    0.0000 H   0  0  0  0  0  0  0  0  0  0  0  0
    1.4631   -1.0000    0.0000 H   0  0  0  0  0  0  0  0  0  0  0  0
    2.3100   -1.2269    0.0000 H   0  0  0  0  0  0  0  0  0  0  0  0
    8.5991   -4.8800    0.0000 H   0  0  0  0  0  0  0  0  0  0  0  0
    8.0622   -5.8100    0.0000 H   0  0  0  0  0  0  0  0  0  0  0  0
    6.6401    5.2731    0.0000 H   0  0  0  0  0  0  0  0  0  0  0  0
    6.8671    6.1200    0.0000 H   0  0  0  0  0  0  0  0  0  0  0  0
    6.0201    6.3469    0.0000 H   0  0  0  0  0  0  0  0  0  0  0  0
  1 12  1  0  0  0  0
  1 16  1  0  0  0  0
  2 14  1  0  0  0  0
  2 26  1  0  0  0  0
  3 24  1  0  0  0  0
  3 27  1  0  0  0  0
  4 18  2  0  0  0  0
  4 25  1  0  0  0  0
  5 19  1  0  0  0  0
  5 25  2  0  0  0  0
  6 18  1  0  0  0  0
  6 40  1  0  0  0  0
  6 41  1  0  0  0  0
  7 25  1  0  0  0  0
  7 45  1  0  0  0  0
  7 46  1  0  0  0  0
  8  9  1  0  0  0  0
  8 10  2  0  0  0  0
  8 13  1  0  0  0  0
  9 11  1  0  0  0  0
  9 28  1  0  0  0  0
  9 29  1  0  0  0  0
 10 14  1  0  0  0  0
 10 30  1  0  0  0  0
 11 18  1  0  0  0  0
 11 19  2  0  0  0  0
 12 14  2  0  0  0  0
 12 15  1  0  0  0  0
 13 15  2  0  0  0  0
 13 31  1  0  0  0  0
 15 32  1  0  0  0  0
 16 17  1  0  0  0  0
 16 33  1  0  0  0  0
 16 34  1  0  0  0  0
 17 20  2  0  0  0  0
 17 21  1  0  0  0  0
 19 35  1  0  0  0  0
 20 22  1  0  0  0  0
 20 36  1  0  0  0  0
 21 23  2  0  0  0  0
 21 37  1  0  0  0  0
 22 24  2  0  0  0  0
 22 38  1  0  0  0  0
 23 24  1  0  0  0  0
 23 39  1  0  0  0  0
 26 42  1  0  0  0  0
 26 43  1  0  0  0  0
 26 44  1  0  0  0  0
 27 47  1  0  0  0  0
 27 48  1  0  0  0  0
 27 49  1  0  0  0  0
M  END
> <PUBCHEM_COMPOUND_CID>
11617559

> <PUBCHEM_COMPOUND_CANONICALIZED>
1

> <PUBCHEM_CACTVS_COMPLEXITY>
433

> <PUBCHEM_CACTVS_HBOND_ACCEPTOR>
7

> <PUBCHEM_CACTVS_HBOND_DONOR>
2

> <PUBCHEM_CACTVS_ROTATABLE_BOND>
7

> <PUBCHEM_CACTVS_SUBSKEYS>
AAADceB7sAAAAAAAAAAAAAAAAAAAAAAAAAA8YIAAAAAAAAAB0AAAHgAQAAAADAThmgY/tpZIFACgAjJnZACCiCkxIKAJ2CAuzJiNLqLE+VqGPCqswBNK6CeQ4PwOIAABAAAAQABAAAIAAACAAAAAAAAAAA==

> <PUBCHEM_IUPAC_OPENEYE_NAME>
5-[[3-methoxy-4-[(4-methoxyphenyl)methoxy]phenyl]methyl]pyrimidine-2,4-diamine

> <PUBCHEM_IUPAC_CAS_NAME>
5-[[3-methoxy-4-[(4-methoxyphenyl)methoxy]phenyl]methyl]pyrimidine-2,4-diamine

> <PUBCHEM_IUPAC_NAME>
5-[[3-methoxy-4-[(4-methoxyphenyl)methoxy]phenyl]methyl]pyrimidine-2,4-diamine

> <PUBCHEM_IUPAC_SYSTEMATIC_NAME>
5-[[3-methoxy-4-[(4-methoxyphenyl)methoxy]phenyl]methyl]pyrimidine-2,4-diamine

> <PUBCHEM_IUPAC_TRADITIONAL_NAME>
[2-amino-5-(3-methoxy-4-p-anisyloxy-benzyl)pyrimidin-4-yl]amine

> <PUBCHEM_IUPAC_INCHI>
InChI=1S/C20H22N4O3/c1-25-16-6-3-13(4-7-16)12-27-17-8-5-14(10-18(17)26-2)9-15-11-23-20(22)24-19(15)21/h3-8,10-11H,9,12H2,1-2H3,(H4,21,22,23,24)

> <PUBCHEM_IUPAC_INCHIKEY>
MYQAUKPBNJWPIE-UHFFFAOYSA-N

> <PUBCHEM_XLOGP3>
2.6

> <PUBCHEM_EXACT_MASS>
366.169

> <PUBCHEM_MOLECULAR_FORMULA>
C20H22N4O3

> <PUBCHEM_MOLECULAR_WEIGHT>
366.421

> <PUBCHEM_OPENEYE_CAN_SMILES>
COC1=CC=C(C=C1)COC2=C(C=C(C=C2)CC3=CN=C(N=C3N)N)OC

> <PUBCHEM_OPENEYE_ISO_SMILES>
COC1=CC=C(C=C1)COC2=C(C=C(C=C2)CC3=CN=C(N=C3N)N)OC

> <PUBCHEM_CACTVS_TPSA>
106

> <PUBCHEM_MONOISOTOPIC_WEIGHT>
366.169

> <PUBCHEM_TOTAL_CHARGE>
0

> <PUBCHEM_HEAVY_ATOM_COUNT>
27

> <PUBCHEM_ATOM_DEF_STEREO_COUNT>
0

> <PUBCHEM_ATOM_UDEF_STEREO_COUNT>
0

> <PUBCHEM_BOND_DEF_STEREO_COUNT>
0

> <PUBCHEM_BOND_UDEF_STEREO_COUNT>
0

> <PUBCHEM_ISOTOPIC_ATOM_COUNT>
0

> <PUBCHEM_COMPONENT_COUNT>
1

> <PUBCHEM_CACTVS_TAUTO_COUNT>
9

> <PUBCHEM_COORDINATE_TYPE>
1
5
255

> <PUBCHEM_BONDANNOTATIONS>
10  14  8
11  18  8
11  19  8
12  14  8
12  15  8
13  15  8
17  20  8
17  21  8
20  22  8
21  23  8
22  24  8
23  24  8
4  18  8
4  25  8
5  19  8
5  25  8
8  10  8
8  13  8

$$$$
389898
  -OEChem-11021605012D

 28 30  0     0  0  0  0  0  0999 V2000
    3.5827    1.3318    0.0000 Cl  0  0  0  0  0  0  0  0  0  0  0  0
    4.2213   -2.3318    0.0000 O   0  0  0  0  0  0  0  0  0  0  0  0
    2.4612    0.7167    0.0000 O   0  0  0  0  0  0  0  0  0  0  0  0
    5.3147   -1.6682    0.0000 O   0  0  0  0  0  0  0  0  0  0  0  0
    5.3147    2.3318    0.0000 O   0  0  0  0  0  0  0  0  0  0  0  0
    3.5827   -0.6682    0.0000 N   0  0  0  0  0  0  0  0  0  0  0  0
    2.0000   -1.0046    0.0000 C   0  0  0  0  0  0  0  0  0  0  0  0
    2.5000   -1.8706    0.0000 C   0  0  0  0  0  0  0  0  0  0  0  0
    4.4487   -0.1682    0.0000 C   0  0  0  0  0  0  0  0  0  0  0  0
    2.6691   -0.2614    0.0000 C   0  0  0  0  0  0  0  0  0  0  0  0
    3.4782   -1.6627    0.0000 C   0  0  0  0  0  0  0  0  0  0  0  0
    5.3147   -0.6682    0.0000 C   0  0  0  0  0  0  0  0  0  0  0  0
    6.1808   -0.1682    0.0000 C   0  0  0  0  0  0  0  0  0  0  0  0
    6.1808    0.8318    0.0000 C   0  0  0  0  0  0  0  0  0  0  0  0
    4.4487    0.8318    0.0000 C   0  0  0  0  0  0  0  0  0  0  0  0
    5.3147    1.3318    0.0000 C   0  0  0  0  0  0  0  0  0  0  0  0
    7.0747   -0.7028    0.0000 C   0  0  0  0  0  0  0  0  0  0  0  0
    7.0747    1.3665    0.0000 C   0  0  0  0  0  0  0  0  0  0  0  0
    7.9808   -0.1890    0.0000 C   0  0  0  0  0  0  0  0  0  0  0  0
    7.9808    0.8526    0.0000 C   0  0  0  0  0  0  0  0  0  0  0  0
    1.5851   -0.5438    0.0000 H   0  0  0  0  0  0  0  0  0  0  0  0
    1.4984   -1.3690    0.0000 H   0  0  0  0  0  0  0  0  0  0  0  0
    1.9336   -2.1228    0.0000 H   0  0  0  0  0  0  0  0  0  0  0  0
    2.6916   -2.4603    0.0000 H   0  0  0  0  0  0  0  0  0  0  0  0
    7.0675   -1.3228    0.0000 H   0  0  0  0  0  0  0  0  0  0  0  0
    7.0675    1.9864    0.0000 H   0  0  0  0  0  0  0  0  0  0  0  0
    8.5165   -0.5011    0.0000 H   0  0  0  0  0  0  0  0  0  0  0  0
    8.5165    1.1647    0.0000 H   0  0  0  0  0  0  0  0  0  0  0  0
  1 15  1  0  0  0  0
  2 11  2  0  0  0  0
  3 10  2  0  0  0  0
  4 12  2  0  0  0  0
  5 16  2  0  0  0  0
  6  9  1  0  0  0  0
  6 10  1  0  0  0  0
  6 11  1  0  0  0  0
  7  8  1  0  0  0  0
  7 10  1  0  0  0  0
  7 21  1  0  0  0  0
  7 22  1  0  0  0  0
  8 11  1  0  0  0  0
  8 23  1  0  0  0  0
  8 24  1  0  0  0  0
  9 12  1  0  0  0  0
  9 15  2  0  0  0  0
 12 13  1  0  0  0  0
 13 14  1  0  0  0  0
 13 17  2  0  0  0  0
 14 16  1  0  0  0  0
 14 18  2  0  0  0  0
 15 16  1  0  0  0  0
 17 19  1  0  0  0  0
 17 25  1  0  0  0  0
 18 20  1  0  0  0  0
 18 26  1  0  0  0  0
 19 20  2  0  0  0  0
 19 27  1  0  0  0  0
 20 28  1  0  0  0  0
M  END
> <PUBCHEM_COMPOUND_CID>
389898

> <PUBCHEM_COMPOUND_CANONICALIZED>
1

> <PUBCHEM_CACTVS_COMPLEXITY>
550

> <PUBCHEM_CACTVS_HBOND_ACCEPTOR>
4

> <PUBCHEM_CACTVS_HBOND_DONOR>
0

> <PUBCHEM_CACTVS_ROTATABLE_BOND>
1

> <PUBCHEM_CACTVS_SUBSKEYS>
AAADccByOAAEAAAAAAAAAAAAAAAAAWAAAAAwQAAAAAAAAACBAAAAHgIAAAAADA6BmAAwAIMAAACIAqVSUAACAAAkAAAIiAGAAshIIDKBlTGEIQAghCCIiccdiYCOgAAAAAAQAAAAAAAAACAAAAAAAAAAAA==

> <PUBCHEM_IUPAC_OPENEYE_NAME>
1-(3-chloro-1,4-dioxo-2-naphthyl)pyrrolidine-2,5-dione

> <PUBCHEM_IUPAC_CAS_NAME>
1-(3-chloro-1,4-dioxo-2-naphthalenyl)pyrrolidine-2,5-dione

> <PUBCHEM_IUPAC_NAME>
1-(3-chloro-1,4-dioxonaphthalen-2-yl)pyrrolidine-2,5-dione

> <PUBCHEM_IUPAC_SYSTEMATIC_NAME>
1-[3-chloranyl-1,4-bis(oxidanylidene)naphthalen-2-yl]pyrrolidine-2,5-dione

> <PUBCHEM_IUPAC_TRADITIONAL_NAME>
1-(3-chloro-1,4-diketo-2-naphthyl)pyrrolidine-2,5-quinone

> <PUBCHEM_IUPAC_INCHI>
InChI=1S/C14H8ClNO4/c15-11-12(16-9(17)5-6-10(16)18)14(20)8-4-2-1-3-7(8)13(11)19/h1-4H,5-6H2

> <PUBCHEM_IUPAC_INCHIKEY>
GYQSWJNGTWVFOL-UHFFFAOYSA-N

> <PUBCHEM_XLOGP3_AA>
1.3

> <PUBCHEM_EXACT_MASS>
289.014

> <PUBCHEM_MOLECULAR_FORMULA>
C14H8ClNO4

> <PUBCHEM_MOLECULAR_WEIGHT>
289.671

> <PUBCHEM_OPENEYE_CAN_SMILES>
C1CC(=O)N(C1=O)C2=C(C(=O)C3=CC=CC=C3C2=O)Cl

> <PUBCHEM_OPENEYE_ISO_SMILES>
C1CC(=O)N(C1=O)C2=C(C(=O)C3=CC=CC=C3C2=O)Cl

> <PUBCHEM_CACTVS_TPSA>
71.5

> <PUBCHEM_MONOISOTOPIC_WEIGHT>
289.014

> <PUBCHEM_TOTAL_CHARGE>
0

> <PUBCHEM_HEAVY_ATOM_COUNT>
20

> <PUBCHEM_ATOM_DEF_STEREO_COUNT>
0

> <PUBCHEM_ATOM_UDEF_STEREO_COUNT>
0

> <PUBCHEM_BOND_DEF_STEREO_COUNT>
0

> <PUBCHEM_BOND_UDEF_STEREO_COUNT>
0

> <PUBCHEM_ISOTOPIC_ATOM_COUNT>
0

> <PUBCHEM_COMPONENT_COUNT>
1

> <PUBCHEM_CACTVS_TAUTO_COUNT>
3

> <PUBCHEM_COORDINATE_TYPE>
1
5
255

> <PUBCHEM_BONDANNOTATIONS>
13  14  8
13  17  8
14  18  8
17  19  8
18  20  8
19  20  8

$$$$
6604931
  -OEChem-11021605012D

 54 56  0     1  0  0  0  0  0999 V2000
    2.0000    1.2500    0.0000 Cl  0  0  0  0  0  0  0  0  0  0  0  0
    4.5981   -4.2500    0.0000 O   0  0  0  0  0  0  0  0  0  0  0  0
    3.7320   -1.7500    0.0000 N   0  0  0  0  0  0  0  0  0  0  0  0
    7.2764   -1.5547    0.0000 N   0  0  0  0  0  0  0  0  0  0  0  0
    5.4641   -1.7500    0.0000 N   0  0  0  0  0  0  0  0  0  0  0  0
    4.5981   -0.2500    0.0000 N   0  0  0  0  0  0  0  0  0  0  0  0
    7.2764    0.0547    0.0000 N   0  0  0  0  0  0  0  0  0  0  0  0
    5.4641    1.2500    0.0000 N   0  0  0  0  0  0  0  0  0  0  0  0
    3.7320    4.2500    0.0000 N   0  0  0  0  0  0  0  0  0  0  0  0
    3.7320   -2.7500    0.0000 C   0  0  2  0  0  0  0  0  0  0  0  0
    2.8660   -3.2500    0.0000 C   0  0  0  0  0  0  0  0  0  0  0  0
    4.5981   -3.2500    0.0000 C   0  0  0  0  0  0  0  0  0  0  0  0
    2.8660   -4.2500    0.0000 C   0  0  0  0  0  0  0  0  0  0  0  0
    2.0000   -2.7500    0.0000 C   0  0  0  0  0  0  0  0  0  0  0  0
    7.5870   -2.5053    0.0000 C   0  0  0  0  0  0  0  0  0  0  0  0
    6.3301   -1.2500    0.0000 C   0  0  0  0  0  0  0  0  0  0  0  0
    4.5981   -1.2500    0.0000 C   0  0  0  0  0  0  0  0  0  0  0  0
    6.3301   -0.2500    0.0000 C   0  0  0  0  0  0  0  0  0  0  0  0
    5.4641    0.2500    0.0000 C   0  0  0  0  0  0  0  0  0  0  0  0
    7.8600   -0.7500    0.0000 C   0  0  0  0  0  0  0  0  0  0  0  0
    8.5655   -2.7115    0.0000 C   0  0  0  0  0  0  0  0  0  0  0  0
    6.9192   -3.2496    0.0000 C   0  0  0  0  0  0  0  0  0  0  0  0
    4.5981    1.7500    0.0000 C   0  0  0  0  0  0  0  0  0  0  0  0
    4.5981    2.7500    0.0000 C   0  0  0  0  0  0  0  0  0  0  0  0
    3.7320    1.2500    0.0000 C   0  0  0  0  0  0  0  0  0  0  0  0
    3.7320    3.2500    0.0000 C   0  0  0  0  0  0  0  0  0  0  0  0
    2.8660    1.7500    0.0000 C   0  0  0  0  0  0  0  0  0  0  0  0
    2.8660    2.7500    0.0000 C   0  0  0  0  0  0  0  0  0  0  0  0
    4.2690   -2.4400    0.0000 H   0  0  0  0  0  0  0  0  0  0  0  0
    2.8660   -2.6300    0.0000 H   0  0  0  0  0  0  0  0  0  0  0  0
    3.1951   -1.4400    0.0000 H   0  0  0  0  0  0  0  0  0  0  0  0
    5.2087   -3.3577    0.0000 H   0  0  0  0  0  0  0  0  0  0  0  0
    4.8101   -2.6674    0.0000 H   0  0  0  0  0  0  0  0  0  0  0  0
    2.3100   -2.2131    0.0000 H   0  0  0  0  0  0  0  0  0  0  0  0
    2.2460   -4.2500    0.0000 H   0  0  0  0  0  0  0  0  0  0  0  0
    2.8660   -4.8700    0.0000 H   0  0  0  0  0  0  0  0  0  0  0  0
    3.4860   -4.2500    0.0000 H   0  0  0  0  0  0  0  0  0  0  0  0
    1.4631   -2.4400    0.0000 H   0  0  0  0  0  0  0  0  0  0  0  0
    1.6900   -3.2869    0.0000 H   0  0  0  0  0  0  0  0  0  0  0  0
    6.9803   -2.3774    0.0000 H   0  0  0  0  0  0  0  0  0  0  0  0
    8.4800   -0.7500    0.0000 H   0  0  0  0  0  0  0  0  0  0  0  0
    8.4377   -3.3182    0.0000 H   0  0  0  0  0  0  0  0  0  0  0  0
    9.1722   -2.8393    0.0000 H   0  0  0  0  0  0  0  0  0  0  0  0
    8.6934   -2.1048    0.0000 H   0  0  0  0  0  0  0  0  0  0  0  0
    6.4577   -2.8355    0.0000 H   0  0  0  0  0  0  0  0  0  0  0  0
    6.5051   -3.7110    0.0000 H   0  0  0  0  0  0  0  0  0  0  0  0
    7.3806   -3.6636    0.0000 H   0  0  0  0  0  0  0  0  0  0  0  0
    6.0010    1.5600    0.0000 H   0  0  0  0  0  0  0  0  0  0  0  0
    5.1350   -4.5600    0.0000 H   0  0  0  0  0  0  0  0  0  0  0  0
    5.1350    3.0600    0.0000 H   0  0  0  0  0  0  0  0  0  0  0  0
    3.7320    0.6300    0.0000 H   0  0  0  0  0  0  0  0  0  0  0  0
    2.3291    3.0600    0.0000 H   0  0  0  0  0  0  0  0  0  0  0  0
    3.1951    4.5600    0.0000 H   0  0  0  0  0  0  0  0  0  0  0  0
    4.2690    4.5600    0.0000 H   0  0  0  0  0  0  0  0  0  0  0  0
  1 27  1  0  0  0  0
  2 12  1  0  0  0  0
  2 49  1  0  0  0  0
 10  3  1  1  0  0  0
  3 17  1  0  0  0  0
  3 31  1  0  0  0  0
  4 15  1  0  0  0  0
  4 16  1  0  0  0  0
  4 20  1  0  0  0  0
  5 16  2  0  0  0  0
  5 17  1  0  0  0  0
  6 17  2  0  0  0  0
  6 19  1  0  0  0  0
  7 18  1  0  0  0  0
  7 20  2  0  0  0  0
  8 19  1  0  0  0  0
  8 23  1  0  0  0  0
  8 48  1  0  0  0  0
  9 26  1  0  0  0  0
  9 53  1  0  0  0  0
  9 54  1  0  0  0  0
 10 11  1  0  0  0  0
 10 12  1  0  0  0  0
 10 29  1  0  0  0  0
 11 13  1  0  0  0  0
 11 14  1  0  0  0  0
 11 30  1  0  0  0  0
 12 32  1  0  0  0  0
 12 33  1  0  0  0  0
 13 35  1  0  0  0  0
 13 36  1  0  0  0  0
 13 37  1  0  0  0  0
 14 34  1  0  0  0  0
 14 38  1  0  0  0  0
 14 39  1  0  0  0  0
 15 21  1  0  0  0  0
 15 22  1  0  0  0  0
 15 40  1  0  0  0  0
 16 18  1  0  0  0  0
 18 19  2  0  0  0  0
 20 41  1  0  0  0  0
 21 42  1  0  0  0  0
 21 43  1  0  0  0  0
 21 44  1  0  0  0  0
 22 45  1  0  0  0  0
 22 46  1  0  0  0  0
 22 47  1  0  0  0  0
 23 24  1  0  0  0  0
 23 25  2  0  0  0  0
 24 26  2  0  0  0  0
 24 50  1  0  0  0  0
 25 27  1  0  0  0  0
 25 51  1  0  0  0  0
 26 28  1  0  0  0  0
 27 28  2  0  0  0  0
 28 52  1  0  0  0  0
M  END
> <PUBCHEM_COMPOUND_CID>
6604931

> <PUBCHEM_COMPOUND_CANONICALIZED>
1

> <PUBCHEM_CACTVS_COMPLEXITY>
497

> <PUBCHEM_CACTVS_HBOND_ACCEPTOR>
7

> <PUBCHEM_CACTVS_HBOND_DONOR>
4

> <PUBCHEM_CACTVS_ROTATABLE_BOND>
7

> <PUBCHEM_CACTVS_SUBSKEYS>
AAADceB7oAAEAAAAAAAAAAAAAAAAAWAAAAA8QAAAAAAAAFgB/AAAHgIQCAAADSrhlyY38L/MEgCgASZjZACCgC0xF6AB2KAodpiKeGLB29GUZAhskALYyCcQAAAIAAAAAAYAAAAAAAAADAAAAAAAAAAAAA==

> <PUBCHEM_IUPAC_OPENEYE_NAME>
(2R)-2-[[6-(3-amino-5-chloro-anilino)-9-isopropyl-purin-2-yl]amino]-3-methyl-butan-1-ol

> <PUBCHEM_IUPAC_CAS_NAME>
(2R)-2-[[6-(3-amino-5-chloroanilino)-9-propan-2-yl-2-purinyl]amino]-3-methyl-1-butanol

> <PUBCHEM_IUPAC_NAME>
(2R)-2-[[6-(3-amino-5-chloroanilino)-9-propan-2-ylpurin-2-yl]amino]-3-methylbutan-1-ol

> <PUBCHEM_IUPAC_SYSTEMATIC_NAME>
(2R)-2-[[6-[(3-azanyl-5-chloranyl-phenyl)amino]-9-propan-2-yl-purin-2-yl]amino]-3-methyl-butan-1-ol

> <PUBCHEM_IUPAC_TRADITIONAL_NAME>
(2R)-2-[[6-(3-amino-5-chloro-anilino)-9-isopropyl-purin-2-yl]amino]-3-methyl-butan-1-ol

> <PUBCHEM_IUPAC_INCHI>
InChI=1S/C19H26ClN7O/c1-10(2)15(8-28)24-19-25-17(23-14-6-12(20)5-13(21)7-14)16-18(26-19)27(9-22-16)11(3)4/h5-7,9-11,15,28H,8,21H2,1-4H3,(H2,23,24,25,26)/t15-/m0/s1

> <PUBCHEM_IUPAC_INCHIKEY>
RAMROQQYRRQPDL-HNNXBMFYSA-N

> <PUBCHEM_XLOGP3_AA>
3.6

> <PUBCHEM_EXACT_MASS>
403.189

> <PUBCHEM_MOLECULAR_FORMULA>
C19H26ClN7O

> <PUBCHEM_MOLECULAR_WEIGHT>
403.915

> <PUBCHEM_OPENEYE_CAN_SMILES>
CC(C)C(CO)NC1=NC2=C(C(=N1)NC3=CC(=CC(=C3)N)Cl)N=CN2C(C)C

> <PUBCHEM_OPENEYE_ISO_SMILES>
CC(C)[C@H](CO)NC1=NC2=C(C(=N1)NC3=CC(=CC(=C3)N)Cl)N=CN2C(C)C

> <PUBCHEM_CACTVS_TPSA>
114

> <PUBCHEM_MONOISOTOPIC_WEIGHT>
403.189

> <PUBCHEM_TOTAL_CHARGE>
0

> <PUBCHEM_HEAVY_ATOM_COUNT>
28

> <PUBCHEM_ATOM_DEF_STEREO_COUNT>
1

> <PUBCHEM_ATOM_UDEF_STEREO_COUNT>
0

> <PUBCHEM_BOND_DEF_STEREO_COUNT>
0

> <PUBCHEM_BOND_UDEF_STEREO_COUNT>
0

> <PUBCHEM_ISOTOPIC_ATOM_COUNT>
0

> <PUBCHEM_COMPONENT_COUNT>
1

> <PUBCHEM_CACTVS_TAUTO_COUNT>
9

> <PUBCHEM_COORDINATE_TYPE>
1
5
255

> <PUBCHEM_BONDANNOTATIONS>
16  18  8
18  19  8
23  24  8
23  25  8
24  26  8
25  27  8
26  28  8
27  28  8
10  3  5
4  16  8
4  20  8
5  16  8
5  17  8
6  17  8
6  19  8
7  18  8
7  20  8

$$$$
10196499
  -OEChem-11021605012D

 71 78  0     0  0  0  0  0  0999 V2000
    6.2030    3.6555    0.0000 O   0  0  0  0  0  0  0  0  0  0  0  0
    4.4352    0.3894    0.0000 N   0  0  0  0  0  0  0  0  0  0  0  0
    4.4467    3.3894    0.0000 N   0  0  0  0  0  0  0  0  0  0  0  0
    4.9526    4.9172    0.0000 N   0  0  0  0  0  0  0  0  0  0  0  0
    8.7938   -2.1101    0.0000 N   0  0  0  0  0  0  0  0  0  0  0  0
    8.7938   -4.1794    0.0000 N   0  0  0  0  0  0  0  0  0  0  0  0
   12.3660   -2.3400    0.0000 N   0  0  0  0  0  0  0  0  0  0  0  0
   12.3660   -3.9495    0.0000 N   0  0  0  0  0  0  0  0  0  0  0  0
    4.4429    2.3894    0.0000 C   0  0  0  0  0  0  0  0  0  0  0  0
    3.5749    1.8927    0.0000 C   0  0  0  0  0  0  0  0  0  0  0  0
    5.3070    1.8860    0.0000 C   0  0  0  0  0  0  0  0  0  0  0  0
    5.3031    0.8860    0.0000 C   0  0  0  0  0  0  0  0  0  0  0  0
    3.5711    0.8927    0.0000 C   0  0  0  0  0  0  0  0  0  0  0  0
    4.4313   -0.6106    0.0000 C   0  0  0  0  0  0  0  0  0  0  0  0
    3.6443    3.9761    0.0000 C   0  0  0  0  0  0  0  0  0  0  0  0
    5.2537    3.9699    0.0000 C   0  0  0  0  0  0  0  0  0  0  0  0
    3.9586    4.9254    0.0000 C   0  0  0  0  0  0  0  0  0  0  0  0
    5.2954   -1.1140    0.0000 C   0  0  0  0  0  0  0  0  0  0  0  0
    2.6650    3.7736    0.0000 C   0  0  0  0  0  0  0  0  0  0  0  0
    3.2936    5.6722    0.0000 C   0  0  0  0  0  0  0  0  0  0  0  0
    5.2916   -2.1139    0.0000 C   0  0  0  0  0  0  0  0  0  0  0  0
    6.1634   -0.6173    0.0000 C   0  0  0  0  0  0  0  0  0  0  0  0
    2.0000    4.5205    0.0000 C   0  0  0  0  0  0  0  0  0  0  0  0
    2.3143    5.4698    0.0000 C   0  0  0  0  0  0  0  0  0  0  0  0
    6.1556   -2.6173    0.0000 C   0  0  0  0  0  0  0  0  0  0  0  0
    7.0274   -1.1206    0.0000 C   0  0  0  0  0  0  0  0  0  0  0  0
    7.0236   -2.1206    0.0000 C   0  0  0  0  0  0  0  0  0  0  0  0
    7.8877   -2.6239    0.0000 C   0  0  0  0  0  0  0  0  0  0  0  0
    7.8877   -3.6656    0.0000 C   0  0  0  0  0  0  0  0  0  0  0  0
    9.6877   -2.6448    0.0000 C   0  0  0  0  0  0  0  0  0  0  0  0
    9.6877   -3.6448    0.0000 C   0  0  0  0  0  0  0  0  0  0  0  0
    7.0236   -4.1689    0.0000 C   0  0  0  0  0  0  0  0  0  0  0  0
   10.5537   -2.1448    0.0000 C   0  0  0  0  0  0  0  0  0  0  0  0
   11.4197   -2.6448    0.0000 C   0  0  0  0  0  0  0  0  0  0  0  0
   10.5537   -4.1448    0.0000 C   0  0  0  0  0  0  0  0  0  0  0  0
   11.4197   -3.6448    0.0000 C   0  0  0  0  0  0  0  0  0  0  0  0
    6.1556   -3.6723    0.0000 C   0  0  0  0  0  0  0  0  0  0  0  0
    7.0274   -5.1689    0.0000 C   0  0  0  0  0  0  0  0  0  0  0  0
   12.9496   -3.1448    0.0000 C   0  0  0  0  0  0  0  0  0  0  0  0
    5.2916   -4.1756    0.0000 C   0  0  0  0  0  0  0  0  0  0  0  0
    6.1634   -5.6722    0.0000 C   0  0  0  0  0  0  0  0  0  0  0  0
    5.2954   -5.1756    0.0000 C   0  0  0  0  0  0  0  0  0  0  0  0
    3.9072    2.7014    0.0000 H   0  0  0  0  0  0  0  0  0  0  0  0
    5.9171    1.7760    0.0000 H   0  0  0  0  0  0  0  0  0  0  0  0
    5.5213    2.4678    0.0000 H   0  0  0  0  0  0  0  0  0  0  0  0
    3.3651    2.4761    0.0000 H   0  0  0  0  0  0  0  0  0  0  0  0
    2.9640    1.7874    0.0000 H   0  0  0  0  0  0  0  0  0  0  0  0
    5.5129    0.3026    0.0000 H   0  0  0  0  0  0  0  0  0  0  0  0
    5.9141    0.9913    0.0000 H   0  0  0  0  0  0  0  0  0  0  0  0
    2.9609    1.0027    0.0000 H   0  0  0  0  0  0  0  0  0  0  0  0
    3.3568    0.3109    0.0000 H   0  0  0  0  0  0  0  0  0  0  0  0
    3.8212   -0.5006    0.0000 H   0  0  0  0  0  0  0  0  0  0  0  0
    4.2170   -1.1924    0.0000 H   0  0  0  0  0  0  0  0  0  0  0  0
    5.3207    5.4162    0.0000 H   0  0  0  0  0  0  0  0  0  0  0  0
    2.4701    3.1850    0.0000 H   0  0  0  0  0  0  0  0  0  0  0  0
    3.4885    6.2608    0.0000 H   0  0  0  0  0  0  0  0  0  0  0  0
    4.7534   -2.4219    0.0000 H   0  0  0  0  0  0  0  0  0  0  0  0
    6.1658    0.0027    0.0000 H   0  0  0  0  0  0  0  0  0  0  0  0
    1.3928    4.3950    0.0000 H   0  0  0  0  0  0  0  0  0  0  0  0
    1.9020    5.9329    0.0000 H   0  0  0  0  0  0  0  0  0  0  0  0
    6.1533   -3.2373    0.0000 H   0  0  0  0  0  0  0  0  0  0  0  0
    7.5656   -0.8127    0.0000 H   0  0  0  0  0  0  0  0  0  0  0  0
   10.5537   -1.5248    0.0000 H   0  0  0  0  0  0  0  0  0  0  0  0
   10.5537   -4.7648    0.0000 H   0  0  0  0  0  0  0  0  0  0  0  0
    6.1533   -3.0523    0.0000 H   0  0  0  0  0  0  0  0  0  0  0  0
    7.5656   -5.4768    0.0000 H   0  0  0  0  0  0  0  0  0  0  0  0
   12.5586   -1.7507    0.0000 H   0  0  0  0  0  0  0  0  0  0  0  0
   13.5696   -3.1448    0.0000 H   0  0  0  0  0  0  0  0  0  0  0  0
    4.7534   -3.8677    0.0000 H   0  0  0  0  0  0  0  0  0  0  0  0
    6.1658   -6.2922    0.0000 H   0  0  0  0  0  0  0  0  0  0  0  0
    4.7597   -5.4877    0.0000 H   0  0  0  0  0  0  0  0  0  0  0  0
  1 16  2  0  0  0  0
  2 12  1  0  0  0  0
  2 13  1  0  0  0  0
  2 14  1  0  0  0  0
  3  9  1  0  0  0  0
  3 15  1  0  0  0  0
  3 16  1  0  0  0  0
  4 16  1  0  0  0  0
  4 17  1  0  0  0  0
  4 54  1  0  0  0  0
  5 28  2  0  0  0  0
  5 30  1  0  0  0  0
  6 29  2  0  0  0  0
  6 31  1  0  0  0  0
  7 34  1  0  0  0  0
  7 39  1  0  0  0  0
  7 67  1  0  0  0  0
  8 36  1  0  0  0  0
  8 39  2  0  0  0  0
  9 10  1  0  0  0  0
  9 11  1  0  0  0  0
  9 43  1  0  0  0  0
 10 13  1  0  0  0  0
 10 46  1  0  0  0  0
 10 47  1  0  0  0  0
 11 12  1  0  0  0  0
 11 44  1  0  0  0  0
 11 45  1  0  0  0  0
 12 48  1  0  0  0  0
 12 49  1  0  0  0  0
 13 50  1  0  0  0  0
 13 51  1  0  0  0  0
 14 18  1  0  0  0  0
 14 52  1  0  0  0  0
 14 53  1  0  0  0  0
 15 17  1  0  0  0  0
 15 19  2  0  0  0  0
 17 20  2  0  0  0  0
 18 21  2  0  0  0  0
 18 22  1  0  0  0  0
 19 23  1  0  0  0  0
 19 55  1  0  0  0  0
 20 24  1  0  0  0  0
 20 56  1  0  0  0  0
 21 25  1  0  0  0  0
 21 57  1  0  0  0  0
 22 26  2  0  0  0  0
 22 58  1  0  0  0  0
 23 24  2  0  0  0  0
 23 59  1  0  0  0  0
 24 60  1  0  0  0  0
 25 27  2  0  0  0  0
 25 61  1  0  0  0  0
 26 27  1  0  0  0  0
 26 62  1  0  0  0  0
 27 28  1  0  0  0  0
 28 29  1  0  0  0  0
 29 32  1  0  0  0  0
 30 31  2  0  0  0  0
 30 33  1  0  0  0  0
 31 35  1  0  0  0  0
 32 37  2  0  0  0  0
 32 38  1  0  0  0  0
 33 34  2  0  0  0  0
 33 63  1  0  0  0  0
 34 36  1  0  0  0  0
 35 36  2  0  0  0  0
 35 64  1  0  0  0  0
 37 40  1  0  0  0  0
 37 65  1  0  0  0  0
 38 41  2  0  0  0  0
 38 66  1  0  0  0  0
 39 68  1  0  0  0  0
 40 42  2  0  0  0  0
 40 69  1  0  0  0  0
 41 42  1  0  0  0  0
 41 70  1  0  0  0  0
 42 71  1  0  0  0  0
M  END
> <PUBCHEM_COMPOUND_CID>
10196499

> <PUBCHEM_COMPOUND_CANONICALIZED>
1

> <PUBCHEM_CACTVS_COMPLEXITY>
927

> <PUBCHEM_CACTVS_HBOND_ACCEPTOR>
5

> <PUBCHEM_CACTVS_HBOND_DONOR>
2

> <PUBCHEM_CACTVS_ROTATABLE_BOND>
5

> <PUBCHEM_CACTVS_SUBSKEYS>
AAADceB/oAAAAAAAAAAAAAAAAAAAAWLAAAA8eMGCAAAAAFix/gAAHgAQAAAADCjBHgQ10LfJkACoAyRjdACCgC2xEqAJ2aA4dJiIaOLA2dGUJAholgLIyCcQgMAOQACAAAQAACCAAQAACAAAQAAAAAAAAA==

> <PUBCHEM_IUPAC_OPENEYE_NAME>
3-[1-[[4-(7-phenyl-3H-imidazo[4,5-g]quinoxalin-6-yl)phenyl]methyl]-4-piperidyl]-1H-benzimidazol-2-one

> <PUBCHEM_IUPAC_CAS_NAME>
3-[1-[[4-(7-phenyl-3H-imidazo[4,5-g]quinoxalin-6-yl)phenyl]methyl]-4-piperidinyl]-1H-benzimidazol-2-one

> <PUBCHEM_IUPAC_NAME>
3-[1-[[4-(7-phenyl-3H-imidazo[4,5-g]quinoxalin-6-yl)phenyl]methyl]piperidin-4-yl]-1H-benzimidazol-2-one

> <PUBCHEM_IUPAC_SYSTEMATIC_NAME>
3-[1-[[4-(7-phenyl-3H-imidazo[4,5-g]quinoxalin-6-yl)phenyl]methyl]piperidin-4-yl]-1H-benzimidazol-2-one

> <PUBCHEM_IUPAC_TRADITIONAL_NAME>
3-[1-[4-(7-phenyl-3H-imidazo[4,5-g]quinoxalin-6-yl)benzyl]-4-piperidyl]-1H-benzimidazol-2-one

> <PUBCHEM_IUPAC_INCHI>
InChI=1S/C34H29N7O/c42-34-39-26-8-4-5-9-31(26)41(34)25-14-16-40(17-15-25)20-22-10-12-24(13-11-22)33-32(23-6-2-1-3-7-23)37-29-18-27-28(36-21-35-27)19-30(29)38-33/h1-13,18-19,21,25H,14-17,20H2,(H,35,36)(H,39,42)

> <PUBCHEM_IUPAC_INCHIKEY>
BIWGYFZAEWGBAL-UHFFFAOYSA-N

> <PUBCHEM_XLOGP3_AA>
5

> <PUBCHEM_EXACT_MASS>
551.243

> <PUBCHEM_MOLECULAR_FORMULA>
C34H29N7O

> <PUBCHEM_MOLECULAR_WEIGHT>
551.654

> <PUBCHEM_OPENEYE_CAN_SMILES>
C1CN(CCC1N2C3=CC=CC=C3NC2=O)CC4=CC=C(C=C4)C5=NC6=CC7=C(C=C6N=C5C8=CC=CC=C8)N=CN7

> <PUBCHEM_OPENEYE_ISO_SMILES>
C1CN(CCC1N2C3=CC=CC=C3NC2=O)CC4=CC=C(C=C4)C5=NC6=CC7=C(C=C6N=C5C8=CC=CC=C8)N=CN7

> <PUBCHEM_CACTVS_TPSA>
90

> <PUBCHEM_MONOISOTOPIC_WEIGHT>
551.243

> <PUBCHEM_TOTAL_CHARGE>
0

> <PUBCHEM_HEAVY_ATOM_COUNT>
42

> <PUBCHEM_ATOM_DEF_STEREO_COUNT>
0

> <PUBCHEM_ATOM_UDEF_STEREO_COUNT>
0

> <PUBCHEM_BOND_DEF_STEREO_COUNT>
0

> <PUBCHEM_BOND_UDEF_STEREO_COUNT>
0

> <PUBCHEM_ISOTOPIC_ATOM_COUNT>
0

> <PUBCHEM_COMPONENT_COUNT>
1

> <PUBCHEM_CACTVS_TAUTO_COUNT>
12

> <PUBCHEM_COORDINATE_TYPE>
1
5
255

> <PUBCHEM_BONDANNOTATIONS>
15  17  8
15  19  8
17  20  8
18  21  8
18  22  8
19  23  8
20  24  8
21  25  8
22  26  8
23  24  8
25  27  8
26  27  8
28  29  8
3  15  8
3  16  8
30  31  8
30  33  8
31  35  8
32  37  8
32  38  8
33  34  8
34  36  8
35  36  8
37  40  8
38  41  8
4  16  8
4  17  8
40  42  8
41  42  8
5  28  8
5  30  8
6  29  8
6  31  8
7  34  8
7  39  8
8  36  8
8  39  8

$$$$
4713
  -OEChem-11021605012D

 33 35  0     0  0  0  0  0  0999 V2000
    5.4641    0.0000    0.0000 O   0  0  0  0  0  0  0  0  0  0  0  0
    2.8660    2.5000    0.0000 O   0  0  0  0  0  0  0  0  0  0  0  0
    5.4641   -3.0000    0.0000 O   0  0  0  0  0  0  0  0  0  0  0  0
    4.5981    1.5000    0.0000 N   0  0  0  0  0  0  0  0  0  0  0  0
    3.7320    0.0000    0.0000 C   0  0  0  0  0  0  0  0  0  0  0  0
    4.5981   -0.5000    0.0000 C   0  0  0  0  0  0  0  0  0  0  0  0
    6.3301   -1.5000    0.0000 C   0  0  0  0  0  0  0  0  0  0  0  0
    6.3301   -0.5000    0.0000 C   0  0  0  0  0  0  0  0  0  0  0  0
    3.7320    1.0000    0.0000 C   0  0  0  0  0  0  0  0  0  0  0  0
    4.5981   -1.5000    0.0000 C   0  0  0  0  0  0  0  0  0  0  0  0
    5.4641   -2.0000    0.0000 C   0  0  0  0  0  0  0  0  0  0  0  0
    2.8660   -0.5000    0.0000 C   0  0  0  0  0  0  0  0  0  0  0  0
    2.8660    1.5000    0.0000 C   0  0  0  0  0  0  0  0  0  0  0  0
    7.2241   -2.0347    0.0000 C   0  0  0  0  0  0  0  0  0  0  0  0
    7.2241    0.0347    0.0000 C   0  0  0  0  0  0  0  0  0  0  0  0
    2.0000    0.0000    0.0000 C   0  0  0  0  0  0  0  0  0  0  0  0
    2.0000    1.0000    0.0000 C   0  0  0  0  0  0  0  0  0  0  0  0
    8.1301   -1.5208    0.0000 C   0  0  0  0  0  0  0  0  0  0  0  0
    8.1301   -0.4792    0.0000 C   0  0  0  0  0  0  0  0  0  0  0  0
    2.0000    3.0000    0.0000 C   0  0  0  0  0  0  0  0  0  0  0  0
    4.0611   -1.8100    0.0000 H   0  0  0  0  0  0  0  0  0  0  0  0
    2.8660   -1.1200    0.0000 H   0  0  0  0  0  0  0  0  0  0  0  0
    7.2169   -2.6546    0.0000 H   0  0  0  0  0  0  0  0  0  0  0  0
    7.2169    0.6546    0.0000 H   0  0  0  0  0  0  0  0  0  0  0  0
    1.4631   -0.3100    0.0000 H   0  0  0  0  0  0  0  0  0  0  0  0
    1.4631    1.3100    0.0000 H   0  0  0  0  0  0  0  0  0  0  0  0
    8.6659   -1.8329    0.0000 H   0  0  0  0  0  0  0  0  0  0  0  0
    8.6659   -0.1671    0.0000 H   0  0  0  0  0  0  0  0  0  0  0  0
    4.5981    2.1200    0.0000 H   0  0  0  0  0  0  0  0  0  0  0  0
    5.1350    1.1900    0.0000 H   0  0  0  0  0  0  0  0  0  0  0  0
    2.3100    3.5369    0.0000 H   0  0  0  0  0  0  0  0  0  0  0  0
    1.4631    3.3100    0.0000 H   0  0  0  0  0  0  0  0  0  0  0  0
    1.6900    2.4631    0.0000 H   0  0  0  0  0  0  0  0  0  0  0  0
  1  6  1  0  0  0  0
  1  8  1  0  0  0  0
  2 13  1  0  0  0  0
  2 20  1  0  0  0  0
  3 11  2  0  0  0  0
  4  9  1  0  0  0  0
  4 29  1  0  0  0  0
  4 30  1  0  0  0  0
  5  6  1  0  0  0  0
  5  9  2  0  0  0  0
  5 12  1  0  0  0  0
  6 10  2  0  0  0  0
  7  8  1  0  0  0  0
  7 11  1  0  0  0  0
  7 14  2  0  0  0  0
  8 15  2  0  0  0  0
  9 13  1  0  0  0  0
 10 11  1  0  0  0  0
 10 21  1  0  0  0  0
 12 16  2  0  0  0  0
 12 22  1  0  0  0  0
 13 17  2  0  0  0  0
 14 18  1  0  0  0  0
 14 23  1  0  0  0  0
 15 19  1  0  0  0  0
 15 24  1  0  0  0  0
 16 17  1  0  0  0  0
 16 25  1  0  0  0  0
 17 26  1  0  0  0  0
 18 19  2  0  0  0  0
 18 27  1  0  0  0  0
 19 28  1  0  0  0  0
 20 31  1  0  0  0  0
 20 32  1  0  0  0  0
 20 33  1  0  0  0  0
M  END
> <PUBCHEM_COMPOUND_CID>
4713

> <PUBCHEM_COMPOUND_CANONICALIZED>
1

> <PUBCHEM_CACTVS_COMPLEXITY>
407

> <PUBCHEM_CACTVS_HBOND_ACCEPTOR>
4

> <PUBCHEM_CACTVS_HBOND_DONOR>
1

> <PUBCHEM_CACTVS_ROTATABLE_BOND>
2

> <PUBCHEM_CACTVS_SUBSKEYS>
AAADccB6MAAAAAAAAAAAAAAAAAAAAAAAAAAwYIAAAAAAAACBQAAAHgAQAAAADAyBmAIyxoBABACIAqRSQACCCAAkIAAIiAEHTMgOJjaEtZuDOWDm4BEI6YfYyLCOAAABAAAKEAAAAAIAABQgAAAAAAAAAA==

> <PUBCHEM_IUPAC_OPENEYE_NAME>
2-(2-amino-3-methoxy-phenyl)chromen-4-one

> <PUBCHEM_IUPAC_CAS_NAME>
2-(2-amino-3-methoxyphenyl)-1-benzopyran-4-one

> <PUBCHEM_IUPAC_NAME>
2-(2-amino-3-methoxyphenyl)chromen-4-one

> <PUBCHEM_IUPAC_SYSTEMATIC_NAME>
2-(2-azanyl-3-methoxy-phenyl)chromen-4-one

> <PUBCHEM_IUPAC_TRADITIONAL_NAME>
2-(2-amino-3-methoxy-phenyl)chromone

> <PUBCHEM_IUPAC_INCHI>
InChI=1S/C16H13NO3/c1-19-14-8-4-6-11(16(14)17)15-9-12(18)10-5-2-3-7-13(10)20-15/h2-9H,17H2,1H3

> <PUBCHEM_IUPAC_INCHIKEY>
QFWCYNPOPKQOKV-UHFFFAOYSA-N

> <PUBCHEM_XLOGP3>
2.9

> <PUBCHEM_EXACT_MASS>
267.09

> <PUBCHEM_MOLECULAR_FORMULA>
C16H13NO3

> <PUBCHEM_MOLECULAR_WEIGHT>
267.284

> <PUBCHEM_OPENEYE_CAN_SMILES>
COC1=CC=CC(=C1N)C2=CC(=O)C3=CC=CC=C3O2

> <PUBCHEM_OPENEYE_ISO_SMILES>
COC1=CC=CC(=C1N)C2=CC(=O)C3=CC=CC=C3O2

> <PUBCHEM_CACTVS_TPSA>
61.6

> <PUBCHEM_MONOISOTOPIC_WEIGHT>
267.09

> <PUBCHEM_TOTAL_CHARGE>
0

> <PUBCHEM_HEAVY_ATOM_COUNT>
20

> <PUBCHEM_ATOM_DEF_STEREO_COUNT>
0

> <PUBCHEM_ATOM_UDEF_STEREO_COUNT>
0

> <PUBCHEM_BOND_DEF_STEREO_COUNT>
0

> <PUBCHEM_BOND_UDEF_STEREO_COUNT>
0

> <PUBCHEM_ISOTOPIC_ATOM_COUNT>
0

> <PUBCHEM_COMPONENT_COUNT>
1

> <PUBCHEM_CACTVS_TAUTO_COUNT>
5

> <PUBCHEM_COORDINATE_TYPE>
1
5
255

> <PUBCHEM_BONDANNOTATIONS>
1  6  8
1  8  8
10  11  8
12  16  8
13  17  8
14  18  8
15  19  8
16  17  8
18  19  8
5  12  8
5  9  8
6  10  8
7  11  8
7  14  8
7  8  8
8  15  8
9  13  8

$$$$
1893668
  -OEChem-11021605012D

 32 33  0     0  0  0  0  0  0999 V2000
    6.4103   -1.1885    0.0000 S   0  0  0  0  0  0  0  0  0  0  0  0
    2.8660    0.6162    0.0000 O   0  0  0  0  0  0  0  0  0  0  0  0
    7.9939   -2.1158    0.0000 O   0  0  0  0  0  0  0  0  0  0  0  0
    6.4103    0.4210    0.0000 N   0  0  0  0  0  0  0  0  0  0  0  0
    5.4641    0.1162    0.0000 C   0  0  0  0  0  0  0  0  0  0  0  0
    6.7210    1.3715    0.0000 C   0  0  0  0  0  0  0  0  0  0  0  0
    5.4641   -0.8838    0.0000 C   0  0  0  0  0  0  0  0  0  0  0  0
    6.9939   -0.3838    0.0000 C   0  0  0  0  0  0  0  0  0  0  0  0
    4.5981    0.6162    0.0000 C   0  0  0  0  0  0  0  0  0  0  0  0
    4.5981   -1.3838    0.0000 C   0  0  0  0  0  0  0  0  0  0  0  0
    3.7320    0.1162    0.0000 C   0  0  0  0  0  0  0  0  0  0  0  0
    6.0531    2.1158    0.0000 C   0  0  0  0  0  0  0  0  0  0  0  0
    3.7320   -0.8838    0.0000 C   0  0  0  0  0  0  0  0  0  0  0  0
    7.9939   -0.3838    0.0000 C   0  0  0  0  0  0  0  0  0  0  0  0
    8.4939   -1.2498    0.0000 C   0  0  0  0  0  0  0  0  0  0  0  0
    9.4939   -1.2498    0.0000 C   0  0  0  0  0  0  0  0  0  0  0  0
    2.0000    0.1162    0.0000 C   0  0  0  0  0  0  0  0  0  0  0  0
    7.2679    1.0795    0.0000 H   0  0  0  0  0  0  0  0  0  0  0  0
    7.1035    1.8594    0.0000 H   0  0  0  0  0  0  0  0  0  0  0  0
    4.5981    1.2362    0.0000 H   0  0  0  0  0  0  0  0  0  0  0  0
    4.5981   -2.0038    0.0000 H   0  0  0  0  0  0  0  0  0  0  0  0
    6.5146    2.5299    0.0000 H   0  0  0  0  0  0  0  0  0  0  0  0
    5.6391    2.5773    0.0000 H   0  0  0  0  0  0  0  0  0  0  0  0
    5.5917    1.7017    0.0000 H   0  0  0  0  0  0  0  0  0  0  0  0
    3.1951   -1.1938    0.0000 H   0  0  0  0  0  0  0  0  0  0  0  0
    8.3039    0.1532    0.0000 H   0  0  0  0  0  0  0  0  0  0  0  0
    9.4939   -1.8698    0.0000 H   0  0  0  0  0  0  0  0  0  0  0  0
   10.1139   -1.2498    0.0000 H   0  0  0  0  0  0  0  0  0  0  0  0
    9.4939   -0.6298    0.0000 H   0  0  0  0  0  0  0  0  0  0  0  0
    1.6900    0.6532    0.0000 H   0  0  0  0  0  0  0  0  0  0  0  0
    1.4631   -0.1938    0.0000 H   0  0  0  0  0  0  0  0  0  0  0  0
    2.3100   -0.4207    0.0000 H   0  0  0  0  0  0  0  0  0  0  0  0
  1  7  1  0  0  0  0
  1  8  1  0  0  0  0
  2 11  1  0  0  0  0
  2 17  1  0  0  0  0
  3 15  2  0  0  0  0
  4  5  1  0  0  0  0
  4  6  1  0  0  0  0
  4  8  1  0  0  0  0
  5  7  2  0  0  0  0
  5  9  1  0  0  0  0
  6 12  1  0  0  0  0
  6 18  1  0  0  0  0
  6 19  1  0  0  0  0
  7 10  1  0  0  0  0
  8 14  2  0  0  0  0
  9 11  2  0  0  0  0
  9 20  1  0  0  0  0
 10 13  2  0  0  0  0
 10 21  1  0  0  0  0
 11 13  1  0  0  0  0
 12 22  1  0  0  0  0
 12 23  1  0  0  0  0
 12 24  1  0  0  0  0
 13 25  1  0  0  0  0
 14 15  1  0  0  0  0
 14 26  1  0  0  0  0
 15 16  1  0  0  0  0
 16 27  1  0  0  0  0
 16 28  1  0  0  0  0
 16 29  1  0  0  0  0
 17 30  1  0  0  0  0
 17 31  1  0  0  0  0
 17 32  1  0  0  0  0
M  END
> <PUBCHEM_COMPOUND_CID>
1893668

> <PUBCHEM_COMPOUND_CANONICALIZED>
1

> <PUBCHEM_CACTVS_COMPLEXITY>
329

> <PUBCHEM_CACTVS_HBOND_ACCEPTOR>
4

> <PUBCHEM_CACTVS_HBOND_DONOR>
0

> <PUBCHEM_CACTVS_ROTATABLE_BOND>
3

> <PUBCHEM_CACTVS_SUBSKEYS>
AAADccByMABAAAAAAAAAAAAAAAAAAWAAAAAwAAAAAAAAAFgBAAAAHgQAAAAACAzB0AYyx4MABAiIAKRSQACCCABhKhAIiBwObMgMJiLksZuEMChmwBnI6EeQUAMAAIAAAgAAAQABAAAEAAACAAAAAAAAAA==

> <PUBCHEM_IUPAC_OPENEYE_NAME>
(1Z)-1-(3-ethyl-5-methoxy-1,3-benzothiazol-2-ylidene)propan-2-one

> <PUBCHEM_IUPAC_CAS_NAME>
(1Z)-1-(3-ethyl-5-methoxy-1,3-benzothiazol-2-ylidene)-2-propanone

> <PUBCHEM_IUPAC_NAME>
(1Z)-1-(3-ethyl-5-methoxy-1,3-benzothiazol-2-ylidene)propan-2-one

> <PUBCHEM_IUPAC_SYSTEMATIC_NAME>
(1Z)-1-(3-ethyl-5-methoxy-1,3-benzothiazol-2-ylidene)propan-2-one

> <PUBCHEM_IUPAC_TRADITIONAL_NAME>
(1Z)-1-(3-ethyl-5-methoxy-1,3-benzothiazol-2-ylidene)acetone

> <PUBCHEM_IUPAC_INCHI>
InChI=1S/C13H15NO2S/c1-4-14-11-8-10(16-3)5-6-12(11)17-13(14)7-9(2)15/h5-8H,4H2,1-3H3/b13-7-

> <PUBCHEM_IUPAC_INCHIKEY>
BGVLELSCIHASRV-QPEQYQDCSA-N

> <PUBCHEM_XLOGP3_AA>
2.6

> <PUBCHEM_EXACT_MASS>
249.082

> <PUBCHEM_MOLECULAR_FORMULA>
C13H15NO2S

> <PUBCHEM_MOLECULAR_WEIGHT>
249.328

> <PUBCHEM_OPENEYE_CAN_SMILES>
CCN1C2=C(C=CC(=C2)OC)SC1=CC(=O)C

> <PUBCHEM_OPENEYE_ISO_SMILES>
CCN\1C2=C(C=CC(=C2)OC)S/C1=C\C(=O)C

> <PUBCHEM_CACTVS_TPSA>
54.8

> <PUBCHEM_MONOISOTOPIC_WEIGHT>
249.082

> <PUBCHEM_TOTAL_CHARGE>
0

> <PUBCHEM_HEAVY_ATOM_COUNT>
17

> <PUBCHEM_ATOM_DEF_STEREO_COUNT>
0

> <PUBCHEM_ATOM_UDEF_STEREO_COUNT>
0

> <PUBCHEM_BOND_DEF_STEREO_COUNT>
1

> <PUBCHEM_BOND_UDEF_STEREO_COUNT>
0

> <PUBCHEM_ISOTOPIC_ATOM_COUNT>
0

> <PUBCHEM_COMPONENT_COUNT>
1

> <PUBCHEM_CACTVS_TAUTO_COUNT>
2

> <PUBCHEM_COORDINATE_TYPE>
1
5
255

> <PUBCHEM_BONDANNOTATIONS>
10  13  8
11  13  8
5  7  8
5  9  8
7  10  8
9  11  8

$$$$
2063
  -OEChem-11021605012D

 22 22  0     0  0  0  0  0  0999 V2000
    2.8660   -3.0000    0.0000 O   0  0  0  0  0  0  0  0  0  0  0  0
    3.7320    3.5000    0.0000 N   0  0  0  0  0  0  0  0  0  0  0  0
    5.4641    0.5000    0.0000 N   0  0  0  0  0  0  0  0  0  0  0  0
    2.8660    0.0000    0.0000 C   0  0  0  0  0  0  0  0  0  0  0  0
    2.8660   -2.0000    0.0000 C   0  0  0  0  0  0  0  0  0  0  0  0
    2.0000   -0.5000    0.0000 C   0  0  0  0  0  0  0  0  0  0  0  0
    3.7320   -0.5000    0.0000 C   0  0  0  0  0  0  0  0  0  0  0  0
    2.0000   -1.5000    0.0000 C   0  0  0  0  0  0  0  0  0  0  0  0
    3.7320   -1.5000    0.0000 C   0  0  0  0  0  0  0  0  0  0  0  0
    2.8660    1.0000    0.0000 C   0  0  0  0  0  0  0  0  0  0  0  0
    3.7320    1.5000    0.0000 C   0  0  0  0  0  0  0  0  0  0  0  0
    2.0000   -3.5000    0.0000 C   0  0  0  0  0  0  0  0  0  0  0  0
    3.7320    2.5000    0.0000 C   0  0  0  0  0  0  0  0  0  0  0  0
    4.5981    1.0000    0.0000 C   0  0  0  0  0  0  0  0  0  0  0  0
    1.4631   -0.1900    0.0000 H   0  0  0  0  0  0  0  0  0  0  0  0
    4.2690   -0.1900    0.0000 H   0  0  0  0  0  0  0  0  0  0  0  0
    1.4631   -1.8100    0.0000 H   0  0  0  0  0  0  0  0  0  0  0  0
    4.2690   -1.8100    0.0000 H   0  0  0  0  0  0  0  0  0  0  0  0
    2.3291    1.3100    0.0000 H   0  0  0  0  0  0  0  0  0  0  0  0
    1.6900   -2.9631    0.0000 H   0  0  0  0  0  0  0  0  0  0  0  0
    1.4631   -3.8100    0.0000 H   0  0  0  0  0  0  0  0  0  0  0  0
    2.3100   -4.0369    0.0000 H   0  0  0  0  0  0  0  0  0  0  0  0
  1  5  1  0  0  0  0
  1 12  1  0  0  0  0
  2 13  3  0  0  0  0
  3 14  3  0  0  0  0
  4  6  2  0  0  0  0
  4  7  1  0  0  0  0
  4 10  1  0  0  0  0
  5  8  2  0  0  0  0
  5  9  1  0  0  0  0
  6  8  1  0  0  0  0
  6 15  1  0  0  0  0
  7  9  2  0  0  0  0
  7 16  1  0  0  0  0
  8 17  1  0  0  0  0
  9 18  1  0  0  0  0
 10 11  2  0  0  0  0
 10 19  1  0  0  0  0
 11 13  1  0  0  0  0
 11 14  1  0  0  0  0
 12 20  1  0  0  0  0
 12 21  1  0  0  0  0
 12 22  1  0  0  0  0
M  END
> <PUBCHEM_COMPOUND_CID>
2063

> <PUBCHEM_COMPOUND_CANONICALIZED>
1

> <PUBCHEM_CACTVS_COMPLEXITY>
289

> <PUBCHEM_CACTVS_HBOND_ACCEPTOR>
3

> <PUBCHEM_CACTVS_HBOND_DONOR>
0

> <PUBCHEM_CACTVS_ROTATABLE_BOND>
2

> <PUBCHEM_CACTVS_SUBSKEYS>
AAADccBzIAAAAAAAAAAAAAAAAAAAAAAAAAAwAAAAAAAAAAABAAAAHgAAAAAADASBmAIyBoAABACQBiBCAAAiCAAgIAAIiAAGCIgMpiKEMRqAMCAkwBEIqAeAwAAOIAAAAAAAAABAAAAAAAAAAAAAAAAAAA==

> <PUBCHEM_IUPAC_OPENEYE_NAME>
2-[(4-methoxyphenyl)methylene]propanedinitrile

> <PUBCHEM_IUPAC_CAS_NAME>
2-[(4-methoxyphenyl)methylidene]propanedinitrile

> <PUBCHEM_IUPAC_NAME>
2-[(4-methoxyphenyl)methylidene]propanedinitrile

> <PUBCHEM_IUPAC_SYSTEMATIC_NAME>
2-[(4-methoxyphenyl)methylidene]propanedinitrile

> <PUBCHEM_IUPAC_TRADITIONAL_NAME>
2-p-anisylidenemalononitrile

> <PUBCHEM_IUPAC_INCHI>
InChI=1S/C11H8N2O/c1-14-11-4-2-9(3-5-11)6-10(7-12)8-13/h2-6H,1H3

> <PUBCHEM_IUPAC_INCHIKEY>
UOHFCPXBKJPCAD-UHFFFAOYSA-N

> <PUBCHEM_XLOGP3_AA>
2

> <PUBCHEM_EXACT_MASS>
184.064

> <PUBCHEM_MOLECULAR_FORMULA>
C11H8N2O

> <PUBCHEM_MOLECULAR_WEIGHT>
184.198

> <PUBCHEM_OPENEYE_CAN_SMILES>
COC1=CC=C(C=C1)C=C(C#N)C#N

> <PUBCHEM_OPENEYE_ISO_SMILES>
COC1=CC=C(C=C1)C=C(C#N)C#N

> <PUBCHEM_CACTVS_TPSA>
56.8

> <PUBCHEM_MONOISOTOPIC_WEIGHT>
184.064

> <PUBCHEM_TOTAL_CHARGE>
0

> <PUBCHEM_HEAVY_ATOM_COUNT>
14

> <PUBCHEM_ATOM_DEF_STEREO_COUNT>
0

> <PUBCHEM_ATOM_UDEF_STEREO_COUNT>
0

> <PUBCHEM_BOND_DEF_STEREO_COUNT>
0

> <PUBCHEM_BOND_UDEF_STEREO_COUNT>
0

> <PUBCHEM_ISOTOPIC_ATOM_COUNT>
0

> <PUBCHEM_COMPONENT_COUNT>
1

> <PUBCHEM_CACTVS_TAUTO_COUNT>
1

> <PUBCHEM_COORDINATE_TYPE>
1
5
255

> <PUBCHEM_BONDANNOTATIONS>
4  6  8
4  7  8
5  8  8
5  9  8
6  8  8
7  9  8

$$$$
5284616
  -OEChem-11021605012D

144147  0     1  0  0  0  0  0999 V2000
    6.7839   -2.6784    0.0000 O   0  0  0  0  0  0  0  0  0  0  0  0
    8.5159   -3.6783    0.0000 O   0  0  0  0  0  0  0  0  0  0  0  0
    9.0811    2.5274    0.0000 O   0  0  0  0  0  0  0  0  0  0  0  0
   13.5434   -1.0117    0.0000 O   0  0  0  0  0  0  0  0  0  0  0  0
   11.6916   -0.3436    0.0000 O   0  0  0  0  0  0  0  0  0  0  0  0
   10.2055    0.9963    0.0000 O   0  0  0  0  0  0  0  0  0  0  0  0
    6.2526    1.2771    0.0000 O   0  0  0  0  0  0  0  0  0  0  0  0
   13.0194    1.4280    0.0000 O   0  0  0  0  0  0  0  0  0  0  0  0
   11.6377   -1.0269    0.0000 O   0  0  0  0  0  0  0  0  0  0  0  0
   10.8113    0.9884    0.0000 O   0  0  0  0  0  0  0  0  0  0  0  0
    2.3100    1.1954    0.0000 O   0  0  0  0  0  0  0  0  0  0  0  0
    4.9410    0.8710    0.0000 O   0  0  0  0  0  0  0  0  0  0  0  0
    3.1511   -1.0117    0.0000 O   0  0  0  0  0  0  0  0  0  0  0  0
   11.8113    1.9883    0.0000 N   0  0  0  0  0  0  0  0  0  0  0  0
    8.5159   -0.6783    0.0000 C   0  0  1  0  0  0  0  0  0  0  0  0
    7.6499   -1.1783    0.0000 C   0  0  0  0  0  0  0  0  0  0  0  0
    9.3819   -1.1783    0.0000 C   0  0  0  0  0  0  0  0  0  0  0  0
    8.5158    0.3217    0.0000 C   0  0  0  0  0  0  0  0  0  0  0  0
    7.6499   -2.1784    0.0000 C   0  0  2  0  0  0  0  0  0  0  0  0
    9.3820   -2.1783    0.0000 C   0  0  0  0  0  0  0  0  0  0  0  0
    8.5159   -2.6783    0.0000 C   0  0  1  0  0  0  0  0  0  0  0  0
    7.8732    1.0877    0.0000 C   0  0  2  0  0  0  0  0  0  0  0  0
    8.2151    2.0274    0.0000 C   0  0  2  0  0  0  0  0  0  0  0  0
    6.8883    0.9140    0.0000 C   0  0  0  0  0  0  0  0  0  0  0  0
    7.3491    2.5274    0.0000 C   0  0  0  0  0  0  0  0  0  0  0  0
   13.5512    0.0064    0.0000 C   0  0  1  0  0  0  0  0  0  0  0  0
   10.9453    2.4883    0.0000 C   0  0  1  0  0  0  0  0  0  0  0  0
   12.6774   -0.5117    0.0000 C   0  0  2  0  0  0  0  0  0  0  0  0
   13.5434   -2.0117    0.0000 C   0  0  1  0  0  0  0  0  0  0  0  0
   14.4329   -0.4981    0.0000 C   0  0  0  0  0  0  0  0  0  0  0  0
   14.4289   -1.5140    0.0000 C   0  0  0  0  0  0  0  0  0  0  0  0
   10.9453    3.4883    0.0000 C   0  0  0  0  0  0  0  0  0  0  0  0
   10.0793    1.9883    0.0000 C   0  0  0  0  0  0  0  0  0  0  0  0
    6.3831    2.2686    0.0000 C   0  0  0  0  0  0  0  0  0  0  0  0
   12.6774    2.4883    0.0000 C   0  0  0  0  0  0  0  0  0  0  0  0
   11.8113    3.9883    0.0000 C   0  0  0  0  0  0  0  0  0  0  0  0
   12.6774    3.4883    0.0000 C   0  0  0  0  0  0  0  0  0  0  0  0
    6.7839   -3.6784    0.0000 C   0  0  0  0  0  0  0  0  0  0  0  0
   12.6774   -2.5117    0.0000 C   0  0  0  0  0  0  0  0  0  0  0  0
   12.6774    0.4883    0.0000 C   0  0  0  0  0  0  0  0  0  0  0  0
   11.8113    0.9883    0.0000 C   0  0  0  0  0  0  0  0  0  0  0  0
   14.1880    0.7774    0.0000 C   0  0  0  0  0  0  0  0  0  0  0  0
    5.5171    2.7686    0.0000 C   0  0  2  0  0  0  0  0  0  0  0  0
   11.8113   -2.0117    0.0000 C   0  0  1  0  0  0  0  0  0  0  0  0
    5.2583    3.7345    0.0000 C   0  0  0  0  0  0  0  0  0  0  0  0
    5.0171    1.9026    0.0000 C   0  0  0  0  0  0  0  0  0  0  0  0
   10.9453   -2.5117    0.0000 C   0  0  0  0  0  0  0  0  0  0  0  0
    4.0171    1.9026    0.0000 C   0  0  0  0  0  0  0  0  0  0  0  0
    3.3100    1.1954    0.0000 C   0  0  2  0  0  0  0  0  0  0  0  0
   10.9453   -3.5117    0.0000 C   0  0  0  0  0  0  0  0  0  0  0  0
   10.0793   -2.0117    0.0000 C   0  0  0  0  0  0  0  0  0  0  0  0
    4.0171    0.4883    0.0000 C   0  0  2  0  0  0  0  0  0  0  0  0
   10.6980   -0.6848    0.0000 C   0  0  0  0  0  0  0  0  0  0  0  0
    3.6344    2.8264    0.0000 C   0  0  0  0  0  0  0  0  0  0  0  0
    4.8831   -1.0117    0.0000 C   0  0  1  0  0  0  0  0  0  0  0  0
    4.0171   -0.5117    0.0000 C   0  0  0  0  0  0  0  0  0  0  0  0
    9.2133   -2.5117    0.0000 C   0  0  0  0  0  0  0  0  0  0  0  0
    5.7492   -0.5117    0.0000 C   0  0  0  0  0  0  0  0  0  0  0  0
    6.6152   -1.0117    0.0000 C   0  0  1  0  0  0  0  0  0  0  0  0
    4.8831   -2.0117    0.0000 C   0  0  0  0  0  0  0  0  0  0  0  0
    8.3472   -2.0117    0.0000 C   0  0  0  0  0  0  0  0  0  0  0  0
    6.6152   -2.0117    0.0000 C   0  0  0  0  0  0  0  0  0  0  0  0
    7.4812   -0.5117    0.0000 C   0  0  0  0  0  0  0  0  0  0  0  0
    7.4812   -2.5117    0.0000 C   0  0  0  0  0  0  0  0  0  0  0  0
    5.7343    0.2623    0.0000 C   0  0  0  0  0  0  0  0  0  0  0  0
    9.0528   -0.3683    0.0000 H   0  0  0  0  0  0  0  0  0  0  0  0
    7.4378   -0.5957    0.0000 H   0  0  0  0  0  0  0  0  0  0  0  0
    7.0393   -1.2860    0.0000 H   0  0  0  0  0  0  0  0  0  0  0  0
    9.9925   -1.2860    0.0000 H   0  0  0  0  0  0  0  0  0  0  0  0
    9.5939   -0.5957    0.0000 H   0  0  0  0  0  0  0  0  0  0  0  0
    9.1098    0.1439    0.0000 H   0  0  0  0  0  0  0  0  0  0  0  0
    8.8566    0.8397    0.0000 H   0  0  0  0  0  0  0  0  0  0  0  0
    7.6499   -2.7984    0.0000 H   0  0  0  0  0  0  0  0  0  0  0  0
    9.5940   -2.7609    0.0000 H   0  0  0  0  0  0  0  0  0  0  0  0
    9.9925   -2.0706    0.0000 H   0  0  0  0  0  0  0  0  0  0  0  0
    7.9790   -2.9883    0.0000 H   0  0  0  0  0  0  0  0  0  0  0  0
    7.6611    0.5051    0.0000 H   0  0  0  0  0  0  0  0  0  0  0  0
    8.8663    1.4811    0.0000 H   0  0  0  0  0  0  0  0  0  0  0  0
    6.7806    1.5246    0.0000 H   0  0  0  0  0  0  0  0  0  0  0  0
    6.2777    0.8064    0.0000 H   0  0  0  0  0  0  0  0  0  0  0  0
    6.9959    0.3034    0.0000 H   0  0  0  0  0  0  0  0  0  0  0  0
    7.7875    2.9658    0.0000 H   0  0  0  0  0  0  0  0  0  0  0  0
    7.0391    3.0643    0.0000 H   0  0  0  0  0  0  0  0  0  0  0  0
   13.1481    0.4775    0.0000 H   0  0  0  0  0  0  0  0  0  0  0  0
    9.0529   -3.9883    0.0000 H   0  0  0  0  0  0  0  0  0  0  0  0
   10.2092    2.9133    0.0000 H   0  0  0  0  0  0  0  0  0  0  0  0
   13.9641   -2.7502    0.0000 H   0  0  0  0  0  0  0  0  0  0  0  0
   15.0433   -0.6066    0.0000 H   0  0  0  0  0  0  0  0  0  0  0  0
   14.6442    0.0847    0.0000 H   0  0  0  0  0  0  0  0  0  0  0  0
   14.6357   -2.0984    0.0000 H   0  0  0  0  0  0  0  0  0  0  0  0
   15.0402   -1.4102    0.0000 H   0  0  0  0  0  0  0  0  0  0  0  0
   10.7333    4.0709    0.0000 H   0  0  0  0  0  0  0  0  0  0  0  0
   10.3347    3.3807    0.0000 H   0  0  0  0  0  0  0  0  0  0  0  0
   12.8894    1.9057    0.0000 H   0  0  0  0  0  0  0  0  0  0  0  0
   13.2879    2.5960    0.0000 H   0  0  0  0  0  0  0  0  0  0  0  0
   12.2099    4.4633    0.0000 H   0  0  0  0  0  0  0  0  0  0  0  0
   11.4128    4.4633    0.0000 H   0  0  0  0  0  0  0  0  0  0  0  0
   13.2879    3.3807    0.0000 H   0  0  0  0  0  0  0  0  0  0  0  0
   12.8894    4.0709    0.0000 H   0  0  0  0  0  0  0  0  0  0  0  0
   12.2788   -2.9866    0.0000 H   0  0  0  0  0  0  0  0  0  0  0  0
   13.0759   -2.9866    0.0000 H   0  0  0  0  0  0  0  0  0  0  0  0
    6.1639   -3.6784    0.0000 H   0  0  0  0  0  0  0  0  0  0  0  0
    6.7839   -4.2984    0.0000 H   0  0  0  0  0  0  0  0  0  0  0  0
    7.4039   -3.6784    0.0000 H   0  0  0  0  0  0  0  0  0  0  0  0
   14.6660    0.3825    0.0000 H   0  0  0  0  0  0  0  0  0  0  0  0
   14.5829    1.2554    0.0000 H   0  0  0  0  0  0  0  0  0  0  0  0
   13.7100    1.1722    0.0000 H   0  0  0  0  0  0  0  0  0  0  0  0
    6.0090    3.1460    0.0000 H   0  0  0  0  0  0  0  0  0  0  0  0
   12.3192   -1.6560    0.0000 H   0  0  0  0  0  0  0  0  0  0  0  0
   11.2144    0.0521    0.0000 H   0  0  0  0  0  0  0  0  0  0  0  0
    5.8572    3.8950    0.0000 H   0  0  0  0  0  0  0  0  0  0  0  0
    5.0978    4.3334    0.0000 H   0  0  0  0  0  0  0  0  0  0  0  0
    4.6594    3.5740    0.0000 H   0  0  0  0  0  0  0  0  0  0  0  0
    5.3271    1.3656    0.0000 H   0  0  0  0  0  0  0  0  0  0  0  0
   10.3253   -3.5117    0.0000 H   0  0  0  0  0  0  0  0  0  0  0  0
   10.9453   -4.1317    0.0000 H   0  0  0  0  0  0  0  0  0  0  0  0
   11.5653   -3.5117    0.0000 H   0  0  0  0  0  0  0  0  0  0  0  0
    3.0727    0.6226    0.0000 H   0  0  0  0  0  0  0  0  0  0  0  0
   10.0793   -1.3917    0.0000 H   0  0  0  0  0  0  0  0  0  0  0  0
    4.1381    1.0964    0.0000 H   0  0  0  0  0  0  0  0  0  0  0  0
   10.9100   -0.1022    0.0000 H   0  0  0  0  0  0  0  0  0  0  0  0
   10.1154   -0.4728    0.0000 H   0  0  0  0  0  0  0  0  0  0  0  0
   10.4859   -1.2674    0.0000 H   0  0  0  0  0  0  0  0  0  0  0  0
    4.2072    3.0637    0.0000 H   0  0  0  0  0  0  0  0  0  0  0  0
    3.3972    3.3992    0.0000 H   0  0  0  0  0  0  0  0  0  0  0  0
    3.0616    2.5892    0.0000 H   0  0  0  0  0  0  0  0  0  0  0  0
    4.3462   -1.3217    0.0000 H   0  0  0  0  0  0  0  0  0  0  0  0
    9.2133   -3.1317    0.0000 H   0  0  0  0  0  0  0  0  0  0  0  0
    6.1477   -0.0367    0.0000 H   0  0  0  0  0  0  0  0  0  0  0  0
    5.3506   -0.0367    0.0000 H   0  0  0  0  0  0  0  0  0  0  0  0
    2.0000    1.7324    0.0000 H   0  0  0  0  0  0  0  0  0  0  0  0
    6.6152   -0.3917    0.0000 H   0  0  0  0  0  0  0  0  0  0  0  0
    4.2631   -2.0117    0.0000 H   0  0  0  0  0  0  0  0  0  0  0  0
    4.8831   -2.6317    0.0000 H   0  0  0  0  0  0  0  0  0  0  0  0
    5.5031   -2.0117    0.0000 H   0  0  0  0  0  0  0  0  0  0  0  0
    8.3472   -1.3917    0.0000 H   0  0  0  0  0  0  0  0  0  0  0  0
    6.0782   -2.3217    0.0000 H   0  0  0  0  0  0  0  0  0  0  0  0
    7.7912   -1.0486    0.0000 H   0  0  0  0  0  0  0  0  0  0  0  0
    8.0181   -0.2017    0.0000 H   0  0  0  0  0  0  0  0  0  0  0  0
    7.1712    0.0253    0.0000 H   0  0  0  0  0  0  0  0  0  0  0  0
    7.4812   -3.1317    0.0000 H   0  0  0  0  0  0  0  0  0  0  0  0
    5.3569   -0.2296    0.0000 H   0  0  0  0  0  0  0  0  0  0  0  0
    6.2262   -0.1152    0.0000 H   0  0  0  0  0  0  0  0  0  0  0  0
    6.1118    0.7541    0.0000 H   0  0  0  0  0  0  0  0  0  0  0  0
 19  1  1  6  0  0  0
  1 38  1  0  0  0  0
 21  2  1  1  0  0  0
  2 85  1  0  0  0  0
  3 23  1  0  0  0  0
  3 33  1  0  0  0  0
  4 28  1  0  0  0  0
  4 29  1  0  0  0  0
 28  5  1  6  0  0  0
  5110  1  0  0  0  0
  6 33  2  0  0  0  0
  7 34  2  0  0  0  0
  8 40  2  0  0  0  0
 44  9  1  1  0  0  0
  9 53  1  0  0  0  0
 10 41  2  0  0  0  0
 49 11  1  6  0  0  0
 11131  1  0  0  0  0
 52 12  1  1  0  0  0
 12 65  1  0  0  0  0
 13 56  2  0  0  0  0
 14 27  1  0  0  0  0
 14 35  1  0  0  0  0
 14 41  1  0  0  0  0
 15 16  1  0  0  0  0
 15 17  1  0  0  0  0
 15 18  1  6  0  0  0
 15 66  1  0  0  0  0
 16 19  1  0  0  0  0
 16 67  1  0  0  0  0
 16 68  1  0  0  0  0
 17 20  1  0  0  0  0
 17 69  1  0  0  0  0
 17 70  1  0  0  0  0
 18 22  1  0  0  0  0
 18 71  1  0  0  0  0
 18 72  1  0  0  0  0
 19 21  1  0  0  0  0
 19 73  1  0  0  0  0
 20 21  1  0  0  0  0
 20 74  1  0  0  0  0
 20 75  1  0  0  0  0
 21 76  1  0  0  0  0
 22 23  1  0  0  0  0
 22 24  1  1  0  0  0
 22 77  1  0  0  0  0
 23 25  1  0  0  0  0
 23 78  1  1  0  0  0
 24 79  1  0  0  0  0
 24 80  1  0  0  0  0
 24 81  1  0  0  0  0
 25 34  1  0  0  0  0
 25 82  1  0  0  0  0
 25 83  1  0  0  0  0
 26 28  1  0  0  0  0
 26 30  1  0  0  0  0
 26 42  1  6  0  0  0
 26 84  1  0  0  0  0
 27 32  1  0  0  0  0
 27 33  1  0  0  0  0
 27 86  1  1  0  0  0
 28 40  1  0  0  0  0
 29 31  1  0  0  0  0
 29 39  1  0  0  0  0
 29 87  1  6  0  0  0
 30 31  1  0  0  0  0
 30 88  1  0  0  0  0
 30 89  1  0  0  0  0
 31 90  1  0  0  0  0
 31 91  1  0  0  0  0
 32 36  1  0  0  0  0
 32 92  1  0  0  0  0
 32 93  1  0  0  0  0
 34 43  1  0  0  0  0
 35 37  1  0  0  0  0
 35 94  1  0  0  0  0
 35 95  1  0  0  0  0
 36 37  1  0  0  0  0
 36 96  1  0  0  0  0
 36 97  1  0  0  0  0
 37 98  1  0  0  0  0
 37 99  1  0  0  0  0
 38102  1  0  0  0  0
 38103  1  0  0  0  0
 38104  1  0  0  0  0
 39 44  1  0  0  0  0
 39100  1  0  0  0  0
 39101  1  0  0  0  0
 40 41  1  0  0  0  0
 42105  1  0  0  0  0
 42106  1  0  0  0  0
 42107  1  0  0  0  0
 43 45  1  1  0  0  0
 43 46  1  0  0  0  0
 43108  1  0  0  0  0
 44 47  1  0  0  0  0
 44109  1  0  0  0  0
 45111  1  0  0  0  0
 45112  1  0  0  0  0
 45113  1  0  0  0  0
 46 48  2  0  0  0  0
 46114  1  0  0  0  0
 47 50  1  0  0  0  0
 47 51  2  0  0  0  0
 48 49  1  0  0  0  0
 48 54  1  0  0  0  0
 49 52  1  0  0  0  0
 49118  1  0  0  0  0
 50115  1  0  0  0  0
 50116  1  0  0  0  0
 50117  1  0  0  0  0
 51 57  1  0  0  0  0
 51119  1  0  0  0  0
 52 56  1  0  0  0  0
 52120  1  0  0  0  0
 53121  1  0  0  0  0
 53122  1  0  0  0  0
 53123  1  0  0  0  0
 54124  1  0  0  0  0
 54125  1  0  0  0  0
 54126  1  0  0  0  0
 55 56  1  0  0  0  0
 55 58  1  0  0  0  0
 55 60  1  1  0  0  0
 55127  1  0  0  0  0
 57 61  2  0  0  0  0
 57128  1  0  0  0  0
 58 59  1  0  0  0  0
 58129  1  0  0  0  0
 58130  1  0  0  0  0
 59 62  1  0  0  0  0
 59 63  1  6  0  0  0
 59132  1  0  0  0  0
 60133  1  0  0  0  0
 60134  1  0  0  0  0
 60135  1  0  0  0  0
 61 64  1  0  0  0  0
 61136  1  0  0  0  0
 62 64  2  0  0  0  0
 62137  1  0  0  0  0
 63138  1  0  0  0  0
 63139  1  0  0  0  0
 63140  1  0  0  0  0
 64141  1  0  0  0  0
 65142  1  0  0  0  0
 65143  1  0  0  0  0
 65144  1  0  0  0  0
M  END
> <PUBCHEM_COMPOUND_CID>
5284616

> <PUBCHEM_COMPOUND_CANONICALIZED>
1

> <PUBCHEM_CACTVS_COMPLEXITY>
1760

> <PUBCHEM_CACTVS_HBOND_ACCEPTOR>
13

> <PUBCHEM_CACTVS_HBOND_DONOR>
3

> <PUBCHEM_CACTVS_ROTATABLE_BOND>
6

> <PUBCHEM_CACTVS_SUBSKEYS>
AAADcfB+PAAAAAAAAAAAAAAAAAAAAAAAAAA8SIAAAAAAAAAAAAAAHgAACAAADTzhgAYCCAMABgCIAqHSGAIAAAAgAAAICAHIAAgbFBYAoSQHUAAH5gCfsAOY6PSOAAAAAAAAAABAAAIAAACAAAAAAAAAAA==

> <PUBCHEM_IUPAC_INCHI>
InChI=1S/C51H79NO13/c1-30-16-12-11-13-17-31(2)42(61-8)28-38-21-19-36(7)51(60,65-38)48(57)49(58)52-23-15-14-18-39(52)50(59)64-43(33(4)26-37-20-22-40(53)44(27-37)62-9)29-41(54)32(3)25-35(6)46(56)47(63-10)45(55)34(5)24-30/h11-13,16-17,25,30,32-34,36-40,42-44,46-47,53,56,60H,14-15,18-24,26-29H2,1-10H3/b13-11+,16-12+,31-17+,35-25+/t30-,32-,33-,34-,36-,37+,38+,39+,40-,42+,43+,44-,46-,47+,51-/m1/s1

> <PUBCHEM_IUPAC_INCHIKEY>
QFJCIRLUMZQUOT-HPLJOQBZSA-N

> <PUBCHEM_XLOGP3_AA>
6

> <PUBCHEM_EXACT_MASS>
913.555

> <PUBCHEM_MOLECULAR_FORMULA>
C51H79NO13

> <PUBCHEM_MOLECULAR_WEIGHT>
914.187

> <PUBCHEM_OPENEYE_CAN_SMILES>
CC1CCC2CC(C(=CC=CC=CC(CC(C(=O)C(C(C(=CC(C(=O)CC(OC(=O)C3CCCCN3C(=O)C(=O)C1(O2)O)C(C)CC4CCC(C(C4)OC)O)C)C)O)OC)C)C)C)OC

> <PUBCHEM_OPENEYE_ISO_SMILES>
C[C@@H]1CC[C@H]2C[C@@H](/C(=C/C=C/C=C/[C@H](C[C@H](C(=O)[C@@H]([C@@H](/C(=C/[C@H](C(=O)C[C@H](OC(=O)[C@@H]3CCCCN3C(=O)C(=O)[C@@]1(O2)O)[C@H](C)C[C@@H]4CC[C@H]([C@@H](C4)OC)O)C)/C)O)OC)C)C)/C)OC

> <PUBCHEM_CACTVS_TPSA>
195

> <PUBCHEM_MONOISOTOPIC_WEIGHT>
913.555

> <PUBCHEM_TOTAL_CHARGE>
0

> <PUBCHEM_HEAVY_ATOM_COUNT>
65

> <PUBCHEM_ATOM_DEF_STEREO_COUNT>
15

> <PUBCHEM_ATOM_UDEF_STEREO_COUNT>
0

> <PUBCHEM_BOND_DEF_STEREO_COUNT>
4

> <PUBCHEM_BOND_UDEF_STEREO_COUNT>
0

> <PUBCHEM_ISOTOPIC_ATOM_COUNT>
0

> <PUBCHEM_COMPONENT_COUNT>
1

> <PUBCHEM_CACTVS_TAUTO_COUNT>
15

> <PUBCHEM_COORDINATE_TYPE>
1
5
255

> <PUBCHEM_BONDANNOTATIONS>
19  1  6
49  11  6
52  12  5
15  18  6
21  2  5
22  24  5
23  78  5
26  42  6
27  86  5
29  87  6
43  45  5
28  5  6
55  60  5
59  63  6
44  9  5

$$$$
5472558
  -OEChem-11021605012D

 32 35  0     0  0  0  0  0  0999 V2000
    6.1279   -2.0288    0.0000 Cl  0  0  0  0  0  0  0  0  0  0  0  0
    4.2473    2.4110    0.0000 O   0  0  0  0  0  0  0  0  0  0  0  0
    4.6783   -2.3335    0.0000 N   0  0  0  0  0  0  0  0  0  0  0  0
    6.0211    2.3162    0.0000 N   0  0  0  0  0  0  0  0  0  0  0  0
    4.6783   -0.7240    0.0000 C   0  0  0  0  0  0  0  0  0  0  0  0
    5.2164    0.9223    0.0000 C   0  0  0  0  0  0  0  0  0  0  0  0
    3.7320   -1.0288    0.0000 C   0  0  0  0  0  0  0  0  0  0  0  0
    6.1882    0.7131    0.0000 C   0  0  0  0  0  0  0  0  0  0  0  0
    4.4720    0.2545    0.0000 C   0  0  0  0  0  0  0  0  0  0  0  0
    3.7320   -2.0288    0.0000 C   0  0  0  0  0  0  0  0  0  0  0  0
    6.6882    1.5791    0.0000 C   0  0  0  0  0  0  0  0  0  0  0  0
    5.2619   -1.5288    0.0000 C   0  0  0  0  0  0  0  0  0  0  0  0
    5.1133    1.9110    0.0000 C   0  0  0  0  0  0  0  0  0  0  0  0
    2.8660   -0.5288    0.0000 C   0  0  0  0  0  0  0  0  0  0  0  0
    6.6882   -0.1529    0.0000 C   0  0  0  0  0  0  0  0  0  0  0  0
    2.8660   -2.5288    0.0000 C   0  0  0  0  0  0  0  0  0  0  0  0
    7.6882    1.5791    0.0000 C   0  0  0  0  0  0  0  0  0  0  0  0
    2.0000   -1.0288    0.0000 C   0  0  0  0  0  0  0  0  0  0  0  0
    7.6882   -0.1529    0.0000 C   0  0  0  0  0  0  0  0  0  0  0  0
    2.0000   -2.0288    0.0000 C   0  0  0  0  0  0  0  0  0  0  0  0
    8.1882    0.7131    0.0000 C   0  0  0  0  0  0  0  0  0  0  0  0
    3.8827    0.4471    0.0000 H   0  0  0  0  0  0  0  0  0  0  0  0
    4.8709   -2.9228    0.0000 H   0  0  0  0  0  0  0  0  0  0  0  0
    6.1489    2.9228    0.0000 H   0  0  0  0  0  0  0  0  0  0  0  0
    2.8660    0.0912    0.0000 H   0  0  0  0  0  0  0  0  0  0  0  0
    6.3782   -0.6899    0.0000 H   0  0  0  0  0  0  0  0  0  0  0  0
    2.8660   -3.1488    0.0000 H   0  0  0  0  0  0  0  0  0  0  0  0
    7.9982    2.1161    0.0000 H   0  0  0  0  0  0  0  0  0  0  0  0
    1.4631   -0.7188    0.0000 H   0  0  0  0  0  0  0  0  0  0  0  0
    7.9982   -0.6899    0.0000 H   0  0  0  0  0  0  0  0  0  0  0  0
    1.4631   -2.3388    0.0000 H   0  0  0  0  0  0  0  0  0  0  0  0
    8.8082    0.7131    0.0000 H   0  0  0  0  0  0  0  0  0  0  0  0
  1 12  1  0  0  0  0
  2 13  2  0  0  0  0
  3 10  1  0  0  0  0
  3 12  1  0  0  0  0
  3 23  1  0  0  0  0
  4 11  1  0  0  0  0
  4 13  1  0  0  0  0
  4 24  1  0  0  0  0
  5  7  1  0  0  0  0
  5  9  1  0  0  0  0
  5 12  2  0  0  0  0
  6  8  1  0  0  0  0
  6  9  2  0  0  0  0
  6 13  1  0  0  0  0
  7 10  1  0  0  0  0
  7 14  2  0  0  0  0
  8 11  1  0  0  0  0
  8 15  2  0  0  0  0
  9 22  1  0  0  0  0
 10 16  2  0  0  0  0
 11 17  2  0  0  0  0
 14 18  1  0  0  0  0
 14 25  1  0  0  0  0
 15 19  1  0  0  0  0
 15 26  1  0  0  0  0
 16 20  1  0  0  0  0
 16 27  1  0  0  0  0
 17 21  1  0  0  0  0
 17 28  1  0  0  0  0
 18 20  2  0  0  0  0
 18 29  1  0  0  0  0
 19 21  2  0  0  0  0
 19 30  1  0  0  0  0
 20 31  1  0  0  0  0
 21 32  1  0  0  0  0
M  END
> <PUBCHEM_COMPOUND_CID>
5472558

> <PUBCHEM_COMPOUND_CANONICALIZED>
1

> <PUBCHEM_CACTVS_COMPLEXITY>
464

> <PUBCHEM_CACTVS_HBOND_ACCEPTOR>
1

> <PUBCHEM_CACTVS_HBOND_DONOR>
2

> <PUBCHEM_CACTVS_ROTATABLE_BOND>
1

> <PUBCHEM_CACTVS_SUBSKEYS>
AAADccB7IAAEAAAAAAAAAAAAAAAAAWLAAAAwYAAAAAAAAFgB9AAAHgIQAAAADAqBniAwwPLJkACoAyVyVACCgCAhBiAImSEwZtgIIPLBl5GEIAhglADIyYcciMCOgAAAAAACAAAAAAAAAAQAAAAAAAAAAA==

> <PUBCHEM_IUPAC_OPENEYE_NAME>
(3E)-3-[(2-chloro-1H-indol-3-yl)methylene]indolin-2-one

> <PUBCHEM_IUPAC_CAS_NAME>
(3E)-3-[(2-chloro-1H-indol-3-yl)methylidene]-1H-indol-2-one

> <PUBCHEM_IUPAC_NAME>
(3E)-3-[(2-chloro-1H-indol-3-yl)methylidene]-1H-indol-2-one

> <PUBCHEM_IUPAC_SYSTEMATIC_NAME>
(3E)-3-[(2-chloranyl-1H-indol-3-yl)methylidene]-1H-indol-2-one

> <PUBCHEM_IUPAC_TRADITIONAL_NAME>
(3E)-3-[(2-chloro-1H-indol-3-yl)methylene]oxindole

> <PUBCHEM_IUPAC_INCHI>
InChI=1S/C17H11ClN2O/c18-16-12(10-5-1-3-7-14(10)19-16)9-13-11-6-2-4-8-15(11)20-17(13)21/h1-9,19H,(H,20,21)/b13-9+

> <PUBCHEM_IUPAC_INCHIKEY>
QJKBRWSJWQVKLY-UKTHLTGXSA-N

> <PUBCHEM_XLOGP3_AA>
4

> <PUBCHEM_EXACT_MASS>
294.056

> <PUBCHEM_MOLECULAR_FORMULA>
C17H11ClN2O

> <PUBCHEM_MOLECULAR_WEIGHT>
294.738

> <PUBCHEM_OPENEYE_CAN_SMILES>
C1=CC=C2C(=C1)C(=CC3=C(NC4=CC=CC=C43)Cl)C(=O)N2

> <PUBCHEM_OPENEYE_ISO_SMILES>
C1=CC=C2C(=C1)/C(=C\C3=C(NC4=CC=CC=C43)Cl)/C(=O)N2

> <PUBCHEM_CACTVS_TPSA>
44.9

> <PUBCHEM_MONOISOTOPIC_WEIGHT>
294.056

> <PUBCHEM_TOTAL_CHARGE>
0

> <PUBCHEM_HEAVY_ATOM_COUNT>
21

> <PUBCHEM_ATOM_DEF_STEREO_COUNT>
0

> <PUBCHEM_ATOM_UDEF_STEREO_COUNT>
0

> <PUBCHEM_BOND_DEF_STEREO_COUNT>
1

> <PUBCHEM_BOND_UDEF_STEREO_COUNT>
0

> <PUBCHEM_ISOTOPIC_ATOM_COUNT>
0

> <PUBCHEM_COMPONENT_COUNT>
1

> <PUBCHEM_CACTVS_TAUTO_COUNT>
5

> <PUBCHEM_COORDINATE_TYPE>
1
5
255

> <PUBCHEM_BONDANNOTATIONS>
10  16  8
11  17  8
14  18  8
15  19  8
16  20  8
17  21  8
18  20  8
19  21  8
3  10  8
3  12  8
5  12  8
5  7  8
7  10  8
7  14  8
8  11  8
8  15  8

$$$$
5162
  -OEChem-11021605012D

 38 40  0     0  0  0  0  0  0999 V2000
    4.6701   -3.7852    0.0000 O   0  0  0  0  0  0  0  0  0  0  0  0
    5.4791    0.8026    0.0000 N   0  0  0  0  0  0  0  0  0  0  0  0
    3.8611    0.8026    0.0000 N   0  0  0  0  0  0  0  0  0  0  0  0
    2.4067    4.1807    0.0000 N   0  0  0  0  0  0  0  0  0  0  0  0
    5.1701    1.7536    0.0000 C   0  0  0  0  0  0  0  0  0  0  0  0
    4.1701    1.7536    0.0000 C   0  0  0  0  0  0  0  0  0  0  0  0
    4.6701    0.2148    0.0000 C   0  0  0  0  0  0  0  0  0  0  0  0
    5.7579    2.5626    0.0000 C   0  0  0  0  0  0  0  0  0  0  0  0
    4.6701   -0.7852    0.0000 C   0  0  0  0  0  0  0  0  0  0  0  0
    3.5823    2.5626    0.0000 C   0  0  0  0  0  0  0  0  0  0  0  0
    6.7524    2.4581    0.0000 C   0  0  0  0  0  0  0  0  0  0  0  0
    3.8041   -1.2852    0.0000 C   0  0  0  0  0  0  0  0  0  0  0  0
    5.5361   -1.2852    0.0000 C   0  0  0  0  0  0  0  0  0  0  0  0
    2.5878    2.4581    0.0000 C   0  0  0  0  0  0  0  0  0  0  0  0
    3.9890    3.4762    0.0000 C   0  0  0  0  0  0  0  0  0  0  0  0
    3.8041   -2.2852    0.0000 C   0  0  0  0  0  0  0  0  0  0  0  0
    5.5361   -2.2852    0.0000 C   0  0  0  0  0  0  0  0  0  0  0  0
    4.6701   -2.7852    0.0000 C   0  0  0  0  0  0  0  0  0  0  0  0
    2.0000    3.2671    0.0000 C   0  0  0  0  0  0  0  0  0  0  0  0
    3.4013    4.2852    0.0000 C   0  0  0  0  0  0  0  0  0  0  0  0
    5.5361   -4.2852    0.0000 C   0  0  0  0  0  0  0  0  0  0  0  0
    5.9288    3.1586    0.0000 H   0  0  0  0  0  0  0  0  0  0  0  0
    5.2006    2.8344    0.0000 H   0  0  0  0  0  0  0  0  0  0  0  0
    6.0688    0.6110    0.0000 H   0  0  0  0  0  0  0  0  0  0  0  0
    6.6876    1.8415    0.0000 H   0  0  0  0  0  0  0  0  0  0  0  0
    7.3690    2.3933    0.0000 H   0  0  0  0  0  0  0  0  0  0  0  0
    6.8172    3.0747    0.0000 H   0  0  0  0  0  0  0  0  0  0  0  0
    3.2671   -0.9752    0.0000 H   0  0  0  0  0  0  0  0  0  0  0  0
    6.0730   -0.9752    0.0000 H   0  0  0  0  0  0  0  0  0  0  0  0
    2.3356    1.8917    0.0000 H   0  0  0  0  0  0  0  0  0  0  0  0
    4.6056    3.5410    0.0000 H   0  0  0  0  0  0  0  0  0  0  0  0
    3.2671   -2.5952    0.0000 H   0  0  0  0  0  0  0  0  0  0  0  0
    6.0730   -2.5952    0.0000 H   0  0  0  0  0  0  0  0  0  0  0  0
    1.3834    3.2023    0.0000 H   0  0  0  0  0  0  0  0  0  0  0  0
    3.6534    4.8516    0.0000 H   0  0  0  0  0  0  0  0  0  0  0  0
    5.2261   -4.8222    0.0000 H   0  0  0  0  0  0  0  0  0  0  0  0
    6.0730   -4.5952    0.0000 H   0  0  0  0  0  0  0  0  0  0  0  0
    5.8461   -3.7483    0.0000 H   0  0  0  0  0  0  0  0  0  0  0  0
  1 18  1  0  0  0  0
  1 21  1  0  0  0  0
  2  5  1  0  0  0  0
  2  7  1  0  0  0  0
  2 24  1  0  0  0  0
  3  6  1  0  0  0  0
  3  7  2  0  0  0  0
  4 19  2  0  0  0  0
  4 20  1  0  0  0  0
  5  6  2  0  0  0  0
  5  8  1  0  0  0  0
  6 10  1  0  0  0  0
  7  9  1  0  0  0  0
  8 11  1  0  0  0  0
  8 22  1  0  0  0  0
  8 23  1  0  0  0  0
  9 12  2  0  0  0  0
  9 13  1  0  0  0  0
 10 14  2  0  0  0  0
 10 15  1  0  0  0  0
 11 25  1  0  0  0  0
 11 26  1  0  0  0  0
 11 27  1  0  0  0  0
 12 16  1  0  0  0  0
 12 28  1  0  0  0  0
 13 17  2  0  0  0  0
 13 29  1  0  0  0  0
 14 19  1  0  0  0  0
 14 30  1  0  0  0  0
 15 20  2  0  0  0  0
 15 31  1  0  0  0  0
 16 18  2  0  0  0  0
 16 32  1  0  0  0  0
 17 18  1  0  0  0  0
 17 33  1  0  0  0  0
 19 34  1  0  0  0  0
 20 35  1  0  0  0  0
 21 36  1  0  0  0  0
 21 37  1  0  0  0  0
 21 38  1  0  0  0  0
M  END
> <PUBCHEM_COMPOUND_CID>
5162

> <PUBCHEM_COMPOUND_CANONICALIZED>
1

> <PUBCHEM_CACTVS_COMPLEXITY>
311

> <PUBCHEM_CACTVS_HBOND_ACCEPTOR>
3

> <PUBCHEM_CACTVS_HBOND_DONOR>
1

> <PUBCHEM_CACTVS_ROTATABLE_BOND>
4

> <PUBCHEM_CACTVS_SUBSKEYS>
AAADceB7IAAAAAAAAAAAAAAAAAAAAWAAAAA8QAAAAAAAAAAB8AAAHgAQAAAADAzBnwY/lpbJlACgAzZnZACCiC2xMqAJ2SA+fJiMbuLEuZuUMChs0BPI6CeQ0AIOIAAAAAAAAABAAAAAAAAAAAAAAAAAAA==

> <PUBCHEM_IUPAC_OPENEYE_NAME>
4-[5-ethyl-2-(4-methoxyphenyl)-1H-imidazol-4-yl]pyridine

> <PUBCHEM_IUPAC_CAS_NAME>
4-[5-ethyl-2-(4-methoxyphenyl)-1H-imidazol-4-yl]pyridine

> <PUBCHEM_IUPAC_NAME>
4-[5-ethyl-2-(4-methoxyphenyl)-1H-imidazol-4-yl]pyridine

> <PUBCHEM_IUPAC_SYSTEMATIC_NAME>
4-[5-ethyl-2-(4-methoxyphenyl)-1H-imidazol-4-yl]pyridine

> <PUBCHEM_IUPAC_TRADITIONAL_NAME>
4-[5-ethyl-2-(4-methoxyphenyl)-1H-imidazol-4-yl]pyridine

> <PUBCHEM_IUPAC_INCHI>
InChI=1S/C17H17N3O/c1-3-15-16(12-8-10-18-11-9-12)20-17(19-15)13-4-6-14(21-2)7-5-13/h4-11H,3H2,1-2H3,(H,19,20)

> <PUBCHEM_IUPAC_INCHIKEY>
MYKGURNPAUBQLJ-UHFFFAOYSA-N

> <PUBCHEM_XLOGP3_AA>
3.1

> <PUBCHEM_EXACT_MASS>
279.137

> <PUBCHEM_MOLECULAR_FORMULA>
C17H17N3O

> <PUBCHEM_MOLECULAR_WEIGHT>
279.343

> <PUBCHEM_OPENEYE_CAN_SMILES>
CCC1=C(N=C(N1)C2=CC=C(C=C2)OC)C3=CC=NC=C3

> <PUBCHEM_OPENEYE_ISO_SMILES>
CCC1=C(N=C(N1)C2=CC=C(C=C2)OC)C3=CC=NC=C3

> <PUBCHEM_CACTVS_TPSA>
50.8

> <PUBCHEM_MONOISOTOPIC_WEIGHT>
279.137

> <PUBCHEM_TOTAL_CHARGE>
0

> <PUBCHEM_HEAVY_ATOM_COUNT>
21

> <PUBCHEM_ATOM_DEF_STEREO_COUNT>
0

> <PUBCHEM_ATOM_UDEF_STEREO_COUNT>
0

> <PUBCHEM_BOND_DEF_STEREO_COUNT>
0

> <PUBCHEM_BOND_UDEF_STEREO_COUNT>
0

> <PUBCHEM_ISOTOPIC_ATOM_COUNT>
0

> <PUBCHEM_COMPONENT_COUNT>
1

> <PUBCHEM_CACTVS_TAUTO_COUNT>
3

> <PUBCHEM_COORDINATE_TYPE>
1
5
255

> <PUBCHEM_BONDANNOTATIONS>
10  14  8
10  15  8
12  16  8
13  17  8
14  19  8
15  20  8
16  18  8
17  18  8
2  5  8
2  7  8
3  6  8
3  7  8
4  19  8
4  20  8
5  6  8
9  12  8
9  13  8

$$$$
9549289
  -OEChem-11021605012D

 38 41  0     0  0  0  0  0  0999 V2000
    4.5981    0.4795    0.0000 O   0  0  0  0  0  0  0  0  0  0  0  0
    2.8660    3.4795    0.0000 O   0  0  0  0  0  0  0  0  0  0  0  0
    6.4103   -2.3252    0.0000 N   0  0  0  0  0  0  0  0  0  0  0  0
    4.5981   -2.5205    0.0000 N   0  0  0  0  0  0  0  0  0  0  0  0
    3.7320   -1.0205    0.0000 N   0  0  0  0  0  0  0  0  0  0  0  0
    9.9939   -3.2526    0.0000 N   0  0  0  0  0  0  0  0  0  0  0  0
    6.9939   -1.5205    0.0000 C   0  0  0  0  0  0  0  0  0  0  0  0
    5.4641   -1.0205    0.0000 C   0  0  0  0  0  0  0  0  0  0  0  0
    5.4641   -2.0205    0.0000 C   0  0  0  0  0  0  0  0  0  0  0  0
    6.4103   -0.7158    0.0000 C   0  0  0  0  0  0  0  0  0  0  0  0
    7.9939   -1.5205    0.0000 C   0  0  0  0  0  0  0  0  0  0  0  0
    4.5981   -0.5205    0.0000 C   0  0  0  0  0  0  0  0  0  0  0  0
    8.4939   -2.3865    0.0000 C   0  0  0  0  0  0  0  0  0  0  0  0
    8.4939   -0.6545    0.0000 C   0  0  0  0  0  0  0  0  0  0  0  0
    9.4939   -2.3865    0.0000 C   0  0  0  0  0  0  0  0  0  0  0  0
    9.4939   -0.6545    0.0000 C   0  0  0  0  0  0  0  0  0  0  0  0
    9.9939   -1.5205    0.0000 C   0  0  0  0  0  0  0  0  0  0  0  0
    3.7320   -2.0205    0.0000 C   0  0  0  0  0  0  0  0  0  0  0  0
    3.7320    0.9795    0.0000 C   0  0  0  0  0  0  0  0  0  0  0  0
    3.7320    1.9795    0.0000 C   0  0  0  0  0  0  0  0  0  0  0  0
    2.8660    0.4795    0.0000 C   0  0  0  0  0  0  0  0  0  0  0  0
    2.8660    2.4795    0.0000 C   0  0  0  0  0  0  0  0  0  0  0  0
    2.0000    0.9795    0.0000 C   0  0  0  0  0  0  0  0  0  0  0  0
    2.0000    1.9795    0.0000 C   0  0  0  0  0  0  0  0  0  0  0  0
    6.6029   -0.1265    0.0000 H   0  0  0  0  0  0  0  0  0  0  0  0
    6.6029   -2.9146    0.0000 H   0  0  0  0  0  0  0  0  0  0  0  0
    8.1839   -2.9235    0.0000 H   0  0  0  0  0  0  0  0  0  0  0  0
    8.1839   -0.1175    0.0000 H   0  0  0  0  0  0  0  0  0  0  0  0
    9.8039   -0.1175    0.0000 H   0  0  0  0  0  0  0  0  0  0  0  0
   10.6139   -1.5205    0.0000 H   0  0  0  0  0  0  0  0  0  0  0  0
    3.1951   -2.3305    0.0000 H   0  0  0  0  0  0  0  0  0  0  0  0
    4.2690    2.2895    0.0000 H   0  0  0  0  0  0  0  0  0  0  0  0
    2.8660   -0.1405    0.0000 H   0  0  0  0  0  0  0  0  0  0  0  0
   10.6139   -3.2526    0.0000 H   0  0  0  0  0  0  0  0  0  0  0  0
    9.6839   -3.7895    0.0000 H   0  0  0  0  0  0  0  0  0  0  0  0
    1.4631    0.6695    0.0000 H   0  0  0  0  0  0  0  0  0  0  0  0
    1.4631    2.2895    0.0000 H   0  0  0  0  0  0  0  0  0  0  0  0
    2.3291    3.7895    0.0000 H   0  0  0  0  0  0  0  0  0  0  0  0
  1 12  1  0  0  0  0
  1 19  1  0  0  0  0
  2 22  1  0  0  0  0
  2 38  1  0  0  0  0
  3  7  1  0  0  0  0
  3  9  1  0  0  0  0
  3 26  1  0  0  0  0
  4  9  1  0  0  0  0
  4 18  2  0  0  0  0
  5 12  2  0  0  0  0
  5 18  1  0  0  0  0
  6 15  1  0  0  0  0
  6 34  1  0  0  0  0
  6 35  1  0  0  0  0
  7 10  2  0  0  0  0
  7 11  1  0  0  0  0
  8  9  2  0  0  0  0
  8 10  1  0  0  0  0
  8 12  1  0  0  0  0
 10 25  1  0  0  0  0
 11 13  2  0  0  0  0
 11 14  1  0  0  0  0
 13 15  1  0  0  0  0
 13 27  1  0  0  0  0
 14 16  2  0  0  0  0
 14 28  1  0  0  0  0
 15 17  2  0  0  0  0
 16 17  1  0  0  0  0
 16 29  1  0  0  0  0
 17 30  1  0  0  0  0
 18 31  1  0  0  0  0
 19 20  1  0  0  0  0
 19 21  2  0  0  0  0
 20 22  2  0  0  0  0
 20 32  1  0  0  0  0
 21 23  1  0  0  0  0
 21 33  1  0  0  0  0
 22 24  1  0  0  0  0
 23 24  2  0  0  0  0
 23 36  1  0  0  0  0
 24 37  1  0  0  0  0
M  END
> <PUBCHEM_COMPOUND_CID>
9549289

> <PUBCHEM_COMPOUND_CANONICALIZED>
1

> <PUBCHEM_CACTVS_COMPLEXITY>
424

> <PUBCHEM_CACTVS_HBOND_ACCEPTOR>
5

> <PUBCHEM_CACTVS_HBOND_DONOR>
3

> <PUBCHEM_CACTVS_ROTATABLE_BOND>
3

> <PUBCHEM_CACTVS_SUBSKEYS>
AAADccB7sAAAAAAAAAAAAAAAAAAAAWAAAAA8YIAAAAAAAFgB/AAAHgAQCAAADAyBnwQ19t7JlgCgAyZjZACCiCmxIqAJ2SA+bJiML+LG+duOfCjv0B/I+Cew4PwOAAAASAAAAAAAAACQAAAAAAAAAAAAAA==

> <PUBCHEM_IUPAC_OPENEYE_NAME>
3-[[6-(3-aminophenyl)-7H-pyrrolo[2,3-d]pyrimidin-4-yl]oxy]phenol

> <PUBCHEM_IUPAC_CAS_NAME>
3-[[6-(3-aminophenyl)-7H-pyrrolo[2,3-d]pyrimidin-4-yl]oxy]phenol

> <PUBCHEM_IUPAC_NAME>
3-[[6-(3-aminophenyl)-7H-pyrrolo[2,3-d]pyrimidin-4-yl]oxy]phenol

> <PUBCHEM_IUPAC_SYSTEMATIC_NAME>
3-[[6-(3-aminophenyl)-7H-pyrrolo[2,3-d]pyrimidin-4-yl]oxy]phenol

> <PUBCHEM_IUPAC_TRADITIONAL_NAME>
3-[[6-(3-aminophenyl)-7H-pyrrolo[2,3-d]pyrimidin-4-yl]oxy]phenol

> <PUBCHEM_IUPAC_INCHI>
InChI=1S/C18H14N4O2/c19-12-4-1-3-11(7-12)16-9-15-17(22-16)20-10-21-18(15)24-14-6-2-5-13(23)8-14/h1-10,23H,19H2,(H,20,21,22)

> <PUBCHEM_IUPAC_INCHIKEY>
VPVLEBIVXZSOMQ-UHFFFAOYSA-N

> <PUBCHEM_XLOGP3_AA>
3.2

> <PUBCHEM_EXACT_MASS>
318.112

> <PUBCHEM_MOLECULAR_FORMULA>
C18H14N4O2

> <PUBCHEM_MOLECULAR_WEIGHT>
318.336

> <PUBCHEM_OPENEYE_CAN_SMILES>
C1=CC(=CC(=C1)N)C2=CC3=C(N2)N=CN=C3OC4=CC=CC(=C4)O

> <PUBCHEM_OPENEYE_ISO_SMILES>
C1=CC(=CC(=C1)N)C2=CC3=C(N2)N=CN=C3OC4=CC=CC(=C4)O

> <PUBCHEM_CACTVS_TPSA>
97

> <PUBCHEM_MONOISOTOPIC_WEIGHT>
318.112

> <PUBCHEM_TOTAL_CHARGE>
0

> <PUBCHEM_HEAVY_ATOM_COUNT>
24

> <PUBCHEM_ATOM_DEF_STEREO_COUNT>
0

> <PUBCHEM_ATOM_UDEF_STEREO_COUNT>
0

> <PUBCHEM_BOND_DEF_STEREO_COUNT>
0

> <PUBCHEM_BOND_UDEF_STEREO_COUNT>
0

> <PUBCHEM_ISOTOPIC_ATOM_COUNT>
0

> <PUBCHEM_COMPONENT_COUNT>
1

> <PUBCHEM_CACTVS_TAUTO_COUNT>
9

> <PUBCHEM_COORDINATE_TYPE>
1
5
255

> <PUBCHEM_BONDANNOTATIONS>
11  13  8
11  14  8
13  15  8
14  16  8
15  17  8
16  17  8
19  20  8
19  21  8
20  22  8
21  23  8
22  24  8
23  24  8
3  7  8
3  9  8
4  18  8
4  9  8
5  12  8
5  18  8
7  10  8
8  10  8
8  12  8
8  9  8

$$$$
9549296
  -OEChem-11021605012D

 39 40  0     0  0  0  0  0  0999 V2000
    9.4651    1.4050    0.0000 F   0  0  0  0  0  0  0  0  0  0  0  0
    9.0991    2.7710    0.0000 F   0  0  0  0  0  0  0  0  0  0  0  0
    8.0991    1.0390    0.0000 F   0  0  0  0  0  0  0  0  0  0  0  0
    3.4030    1.9050    0.0000 O   0  0  0  0  0  0  0  0  0  0  0  0
    5.1350    1.9050    0.0000 N   0  0  0  0  0  0  0  0  0  0  0  0
    6.8671   -1.0950    0.0000 N   0  0  0  0  0  0  0  0  0  0  0  0
    6.0010    0.4050    0.0000 N   0  0  0  0  0  0  0  0  0  0  0  0
    5.1350   -1.0950    0.0000 N   0  0  0  0  0  0  0  0  0  0  0  0
    7.7331   -3.5950    0.0000 N   0  0  0  0  0  0  0  0  0  0  0  0
    2.5369    0.4050    0.0000 N   0  0  0  0  0  0  0  0  0  0  0  0
    6.0010    2.4050    0.0000 C   0  0  0  0  0  0  0  0  0  0  0  0
    5.1350    0.9050    0.0000 C   0  0  0  0  0  0  0  0  0  0  0  0
    7.7331    2.4050    0.0000 C   0  0  0  0  0  0  0  0  0  0  0  0
    6.8671   -2.0950    0.0000 C   0  0  0  0  0  0  0  0  0  0  0  0
    6.8671    1.9050    0.0000 C   0  0  0  0  0  0  0  0  0  0  0  0
    4.2690    0.4050    0.0000 C   0  0  0  0  0  0  0  0  0  0  0  0
    6.0010   -0.5950    0.0000 C   0  0  0  0  0  0  0  0  0  0  0  0
    6.0010    3.4050    0.0000 C   0  0  0  0  0  0  0  0  0  0  0  0
    7.7331   -2.5950    0.0000 C   0  0  0  0  0  0  0  0  0  0  0  0
    7.7331    3.4050    0.0000 C   0  0  0  0  0  0  0  0  0  0  0  0
    6.8671    3.9050    0.0000 C   0  0  0  0  0  0  0  0  0  0  0  0
    4.2690   -0.5950    0.0000 C   0  0  0  0  0  0  0  0  0  0  0  0
    8.5991    1.9050    0.0000 C   0  0  0  0  0  0  0  0  0  0  0  0
    3.4030    0.9050    0.0000 C   0  0  0  0  0  0  0  0  0  0  0  0
    4.5981    2.2150    0.0000 H   0  0  0  0  0  0  0  0  0  0  0  0
    6.2565   -1.9873    0.0000 H   0  0  0  0  0  0  0  0  0  0  0  0
    6.6550   -2.6776    0.0000 H   0  0  0  0  0  0  0  0  0  0  0  0
    6.8671    1.2850    0.0000 H   0  0  0  0  0  0  0  0  0  0  0  0
    5.4641    3.7150    0.0000 H   0  0  0  0  0  0  0  0  0  0  0  0
    7.4040   -0.7850    0.0000 H   0  0  0  0  0  0  0  0  0  0  0  0
    8.3437   -2.7027    0.0000 H   0  0  0  0  0  0  0  0  0  0  0  0
    7.9451   -2.0124    0.0000 H   0  0  0  0  0  0  0  0  0  0  0  0
    8.2700    3.7150    0.0000 H   0  0  0  0  0  0  0  0  0  0  0  0
    6.8671    4.5250    0.0000 H   0  0  0  0  0  0  0  0  0  0  0  0
    3.7320   -0.9050    0.0000 H   0  0  0  0  0  0  0  0  0  0  0  0
    8.2700   -3.9050    0.0000 H   0  0  0  0  0  0  0  0  0  0  0  0
    7.1962   -3.9050    0.0000 H   0  0  0  0  0  0  0  0  0  0  0  0
    2.0000    0.7150    0.0000 H   0  0  0  0  0  0  0  0  0  0  0  0
    2.5369   -0.2150    0.0000 H   0  0  0  0  0  0  0  0  0  0  0  0
  1 23  1  0  0  0  0
  2 23  1  0  0  0  0
  3 23  1  0  0  0  0
  4 24  2  0  0  0  0
  5 11  1  0  0  0  0
  5 12  1  0  0  0  0
  5 25  1  0  0  0  0
  6 14  1  0  0  0  0
  6 17  1  0  0  0  0
  6 30  1  0  0  0  0
  7 12  2  0  0  0  0
  7 17  1  0  0  0  0
  8 17  2  0  0  0  0
  8 22  1  0  0  0  0
  9 19  1  0  0  0  0
  9 36  1  0  0  0  0
  9 37  1  0  0  0  0
 10 24  1  0  0  0  0
 10 38  1  0  0  0  0
 10 39  1  0  0  0  0
 11 15  1  0  0  0  0
 11 18  2  0  0  0  0
 12 16  1  0  0  0  0
 13 15  2  0  0  0  0
 13 20  1  0  0  0  0
 13 23  1  0  0  0  0
 14 19  1  0  0  0  0
 14 26  1  0  0  0  0
 14 27  1  0  0  0  0
 15 28  1  0  0  0  0
 16 22  2  0  0  0  0
 16 24  1  0  0  0  0
 18 21  1  0  0  0  0
 18 29  1  0  0  0  0
 19 31  1  0  0  0  0
 19 32  1  0  0  0  0
 20 21  2  0  0  0  0
 20 33  1  0  0  0  0
 21 34  1  0  0  0  0
 22 35  1  0  0  0  0
M  END
> <PUBCHEM_COMPOUND_CID>
9549296

> <PUBCHEM_COMPOUND_CANONICALIZED>
1

> <PUBCHEM_CACTVS_COMPLEXITY>
422

> <PUBCHEM_CACTVS_HBOND_ACCEPTOR>
9

> <PUBCHEM_CACTVS_HBOND_DONOR>
4

> <PUBCHEM_CACTVS_ROTATABLE_BOND>
6

> <PUBCHEM_CACTVS_SUBSKEYS>
AAADccBzoYAAAAAAAAAAAAAAAAAAAAAAAAA8QAAAAAAAAAABwAAAHwAQAAAADAjBmhQ98JbIEACoAjd3dACCgCk1AqAJ2KEoZNiIaOrA2dGUJIhokALIyOcQgAAOAAAAQAAAAAAAAACAAAAAAAAAAAAAAA==

> <PUBCHEM_IUPAC_OPENEYE_NAME>
2-(2-aminoethylamino)-4-[3-(trifluoromethyl)anilino]pyrimidine-5-carboxamide

> <PUBCHEM_IUPAC_CAS_NAME>
2-(2-aminoethylamino)-4-[3-(trifluoromethyl)anilino]-5-pyrimidinecarboxamide

> <PUBCHEM_IUPAC_NAME>
2-(2-aminoethylamino)-4-[3-(trifluoromethyl)anilino]pyrimidine-5-carboxamide

> <PUBCHEM_IUPAC_SYSTEMATIC_NAME>
2-(2-azanylethylamino)-4-[[3-(trifluoromethyl)phenyl]amino]pyrimidine-5-carboxamide

> <PUBCHEM_IUPAC_TRADITIONAL_NAME>
2-(2-aminoethylamino)-4-[3-(trifluoromethyl)anilino]pyrimidine-5-carboxamide

> <PUBCHEM_IUPAC_INCHI>
InChI=1S/C14H15F3N6O/c15-14(16,17)8-2-1-3-9(6-8)22-12-10(11(19)24)7-21-13(23-12)20-5-4-18/h1-3,6-7H,4-5,18H2,(H2,19,24)(H2,20,21,22,23)

> <PUBCHEM_IUPAC_INCHIKEY>
FQNFLNSVHWCZML-UHFFFAOYSA-N

> <PUBCHEM_XLOGP3_AA>
1.8

> <PUBCHEM_EXACT_MASS>
340.126

> <PUBCHEM_MOLECULAR_FORMULA>
C14H15F3N6O

> <PUBCHEM_MOLECULAR_WEIGHT>
340.31

> <PUBCHEM_OPENEYE_CAN_SMILES>
C1=CC(=CC(=C1)NC2=NC(=NC=C2C(=O)N)NCCN)C(F)(F)F

> <PUBCHEM_OPENEYE_ISO_SMILES>
C1=CC(=CC(=C1)NC2=NC(=NC=C2C(=O)N)NCCN)C(F)(F)F

> <PUBCHEM_CACTVS_TPSA>
119

> <PUBCHEM_MONOISOTOPIC_WEIGHT>
340.126

> <PUBCHEM_TOTAL_CHARGE>
0

> <PUBCHEM_HEAVY_ATOM_COUNT>
24

> <PUBCHEM_ATOM_DEF_STEREO_COUNT>
0

> <PUBCHEM_ATOM_UDEF_STEREO_COUNT>
0

> <PUBCHEM_BOND_DEF_STEREO_COUNT>
0

> <PUBCHEM_BOND_UDEF_STEREO_COUNT>
0

> <PUBCHEM_ISOTOPIC_ATOM_COUNT>
0

> <PUBCHEM_COMPONENT_COUNT>
1

> <PUBCHEM_CACTVS_TAUTO_COUNT>
21

> <PUBCHEM_COORDINATE_TYPE>
1
5
255

> <PUBCHEM_BONDANNOTATIONS>
11  15  8
11  18  8
12  16  8
13  15  8
13  20  8
16  22  8
18  21  8
20  21  8
7  12  8
7  17  8
8  17  8
8  22  8

$$$$
3971
  -OEChem-11021605012D

 41 44  0     0  0  0  0  0  0999 V2000
    6.0010    0.0172    0.0000 O   0  0  0  0  0  0  0  0  0  0  0  0
    6.0010    3.0172    0.0000 O   0  0  0  0  0  0  0  0  0  0  0  0
    4.2690    0.0172    0.0000 N   0  0  0  0  0  0  0  0  0  0  0  0
    2.5369   -0.9828    0.0000 N   0  0  0  0  0  0  0  0  0  0  0  0
    3.4030    0.5172    0.0000 C   0  0  0  0  0  0  0  0  0  0  0  0
    4.2690   -0.9828    0.0000 C   0  0  0  0  0  0  0  0  0  0  0  0
    2.5369    0.0172    0.0000 C   0  0  0  0  0  0  0  0  0  0  0  0
    3.4030   -1.4828    0.0000 C   0  0  0  0  0  0  0  0  0  0  0  0
    5.1350    0.5172    0.0000 C   0  0  0  0  0  0  0  0  0  0  0  0
    6.8671    0.5172    0.0000 C   0  0  0  0  0  0  0  0  0  0  0  0
    5.1350    1.5172    0.0000 C   0  0  0  0  0  0  0  0  0  0  0  0
    6.8671    1.5172    0.0000 C   0  0  0  0  0  0  0  0  0  0  0  0
    7.7610   -0.0174    0.0000 C   0  0  0  0  0  0  0  0  0  0  0  0
    6.0010    2.0172    0.0000 C   0  0  0  0  0  0  0  0  0  0  0  0
    7.7610    2.0519    0.0000 C   0  0  0  0  0  0  0  0  0  0  0  0
    7.7494   -1.0174    0.0000 C   0  0  0  0  0  0  0  0  0  0  0  0
    8.6671    0.4964    0.0000 C   0  0  0  0  0  0  0  0  0  0  0  0
    8.6671    1.5380    0.0000 C   0  0  0  0  0  0  0  0  0  0  0  0
    6.8777   -1.5073    0.0000 C   0  0  0  0  0  0  0  0  0  0  0  0
    8.6096   -1.5273    0.0000 C   0  0  0  0  0  0  0  0  0  0  0  0
    6.8661   -2.5072    0.0000 C   0  0  0  0  0  0  0  0  0  0  0  0
    8.5981   -2.5273    0.0000 C   0  0  0  0  0  0  0  0  0  0  0  0
    7.7263   -3.0172    0.0000 C   0  0  0  0  0  0  0  0  0  0  0  0
    3.8015    0.9922    0.0000 H   0  0  0  0  0  0  0  0  0  0  0  0
    3.0044    0.9922    0.0000 H   0  0  0  0  0  0  0  0  0  0  0  0
    4.4810   -1.5654    0.0000 H   0  0  0  0  0  0  0  0  0  0  0  0
    4.8796   -0.8751    0.0000 H   0  0  0  0  0  0  0  0  0  0  0  0
    3.0044   -1.9577    0.0000 H   0  0  0  0  0  0  0  0  0  0  0  0
    3.8015   -1.9577    0.0000 H   0  0  0  0  0  0  0  0  0  0  0  0
    2.3249    0.5998    0.0000 H   0  0  0  0  0  0  0  0  0  0  0  0
    1.9264   -0.0904    0.0000 H   0  0  0  0  0  0  0  0  0  0  0  0
    2.0000   -1.2928    0.0000 H   0  0  0  0  0  0  0  0  0  0  0  0
    4.5981    1.8272    0.0000 H   0  0  0  0  0  0  0  0  0  0  0  0
    7.7538    2.6718    0.0000 H   0  0  0  0  0  0  0  0  0  0  0  0
    9.2028    0.1843    0.0000 H   0  0  0  0  0  0  0  0  0  0  0  0
    9.2028    1.8501    0.0000 H   0  0  0  0  0  0  0  0  0  0  0  0
    6.3444   -1.1911    0.0000 H   0  0  0  0  0  0  0  0  0  0  0  0
    9.1501   -1.2236    0.0000 H   0  0  0  0  0  0  0  0  0  0  0  0
    6.3256   -2.8110    0.0000 H   0  0  0  0  0  0  0  0  0  0  0  0
    9.1314   -2.8435    0.0000 H   0  0  0  0  0  0  0  0  0  0  0  0
    7.7192   -3.6372    0.0000 H   0  0  0  0  0  0  0  0  0  0  0  0
  1  9  1  0  0  0  0
  1 10  1  0  0  0  0
  2 14  2  0  0  0  0
  3  5  1  0  0  0  0
  3  6  1  0  0  0  0
  3  9  1  0  0  0  0
  4  7  1  0  0  0  0
  4  8  1  0  0  0  0
  4 32  1  0  0  0  0
  5  7  1  0  0  0  0
  5 24  1  0  0  0  0
  5 25  1  0  0  0  0
  6  8  1  0  0  0  0
  6 26  1  0  0  0  0
  6 27  1  0  0  0  0
  7 30  1  0  0  0  0
  7 31  1  0  0  0  0
  8 28  1  0  0  0  0
  8 29  1  0  0  0  0
  9 11  2  0  0  0  0
 10 12  2  0  0  0  0
 10 13  1  0  0  0  0
 11 14  1  0  0  0  0
 11 33  1  0  0  0  0
 12 14  1  0  0  0  0
 12 15  1  0  0  0  0
 13 16  1  0  0  0  0
 13 17  2  0  0  0  0
 15 18  2  0  0  0  0
 15 34  1  0  0  0  0
 16 19  2  0  0  0  0
 16 20  1  0  0  0  0
 17 18  1  0  0  0  0
 17 35  1  0  0  0  0
 18 36  1  0  0  0  0
 19 21  1  0  0  0  0
 19 37  1  0  0  0  0
 20 22  2  0  0  0  0
 20 38  1  0  0  0  0
 21 23  2  0  0  0  0
 21 39  1  0  0  0  0
 22 23  1  0  0  0  0
 22 40  1  0  0  0  0
 23 41  1  0  0  0  0
M  END
> <PUBCHEM_COMPOUND_CID>
3971

> <PUBCHEM_COMPOUND_CANONICALIZED>
1

> <PUBCHEM_CACTVS_COMPLEXITY>
464

> <PUBCHEM_CACTVS_HBOND_ACCEPTOR>
4

> <PUBCHEM_CACTVS_HBOND_DONOR>
1

> <PUBCHEM_CACTVS_ROTATABLE_BOND>
2

> <PUBCHEM_CACTVS_SUBSKEYS>
AAADceB7MAAAAAAAAAAAAAAAAAAAAAAAAAA8YIEAAAAAAACBQAAAHgAQAAAADATBmAQwBoPABACIAqBSQAACCAAkIgAIiIEMCMgMZjaENRqYMWAk8BGIqceIyOCOgAACAAAIAAAAAAQAABAAAAAAAAAAAA==

> <PUBCHEM_IUPAC_OPENEYE_NAME>
8-phenyl-2-piperazin-1-yl-chromen-4-one

> <PUBCHEM_IUPAC_CAS_NAME>
8-phenyl-2-(1-piperazinyl)-1-benzopyran-4-one

> <PUBCHEM_IUPAC_NAME>
8-phenyl-2-piperazin-1-ylchromen-4-one

> <PUBCHEM_IUPAC_SYSTEMATIC_NAME>
8-phenyl-2-piperazin-1-yl-chromen-4-one

> <PUBCHEM_IUPAC_TRADITIONAL_NAME>
8-phenyl-2-piperazino-chromone

> <PUBCHEM_IUPAC_INCHI>
InChI=1S/C19H18N2O2/c22-17-13-18(21-11-9-20-10-12-21)23-19-15(7-4-8-16(17)19)14-5-2-1-3-6-14/h1-8,13,20H,9-12H2

> <PUBCHEM_IUPAC_INCHIKEY>
NGAGMBNBKCDCDJ-UHFFFAOYSA-N

> <PUBCHEM_XLOGP3_AA>
2.8

> <PUBCHEM_EXACT_MASS>
306.137

> <PUBCHEM_MOLECULAR_FORMULA>
C19H18N2O2

> <PUBCHEM_MOLECULAR_WEIGHT>
306.365

> <PUBCHEM_OPENEYE_CAN_SMILES>
C1CN(CCN1)C2=CC(=O)C3=C(O2)C(=CC=C3)C4=CC=CC=C4

> <PUBCHEM_OPENEYE_ISO_SMILES>
C1CN(CCN1)C2=CC(=O)C3=C(O2)C(=CC=C3)C4=CC=CC=C4

> <PUBCHEM_CACTVS_TPSA>
41.6

> <PUBCHEM_MONOISOTOPIC_WEIGHT>
306.137

> <PUBCHEM_TOTAL_CHARGE>
0

> <PUBCHEM_HEAVY_ATOM_COUNT>
23

> <PUBCHEM_ATOM_DEF_STEREO_COUNT>
0

> <PUBCHEM_ATOM_UDEF_STEREO_COUNT>
0

> <PUBCHEM_BOND_DEF_STEREO_COUNT>
0

> <PUBCHEM_BOND_UDEF_STEREO_COUNT>
0

> <PUBCHEM_ISOTOPIC_ATOM_COUNT>
0

> <PUBCHEM_COMPONENT_COUNT>
1

> <PUBCHEM_CACTVS_TAUTO_COUNT>
1

> <PUBCHEM_COORDINATE_TYPE>
1
5
255

> <PUBCHEM_BONDANNOTATIONS>
1  10  8
1  9  8
10  12  8
10  13  8
11  14  8
12  14  8
12  15  8
13  17  8
15  18  8
16  19  8
16  20  8
17  18  8
19  21  8
20  22  8
21  23  8
22  23  8
9  11  8

$$$$
3641059
  -OEChem-11021605012D

 40 42  0     0  0  0  0  0  0999 V2000
    9.2619   -1.4002    0.0000 O   0  0  0  0  0  0  0  0  0  0  0  0
    4.6783   -2.2049    0.0000 N   0  0  0  0  0  0  0  0  0  0  0  0
    2.8660   -0.4002    0.0000 N   0  0  0  0  0  0  0  0  0  0  0  0
    2.8660   -2.4002    0.0000 N   0  0  0  0  0  0  0  0  0  0  0  0
    4.6783   -0.5954    0.0000 C   0  0  0  0  0  0  0  0  0  0  0  0
    4.9889    0.3551    0.0000 C   0  0  0  0  0  0  0  0  0  0  0  0
    5.2619   -1.4002    0.0000 C   0  0  0  0  0  0  0  0  0  0  0  0
    4.3211    1.0994    0.0000 C   0  0  0  0  0  0  0  0  0  0  0  0
    3.7320   -0.9002    0.0000 C   0  0  0  0  0  0  0  0  0  0  0  0
    3.7320   -1.9002    0.0000 C   0  0  0  0  0  0  0  0  0  0  0  0
    4.6318    2.0499    0.0000 C   0  0  0  0  0  0  0  0  0  0  0  0
    6.2619   -1.4002    0.0000 C   0  0  0  0  0  0  0  0  0  0  0  0
    3.9639    2.7942    0.0000 C   0  0  0  0  0  0  0  0  0  0  0  0
    6.7619   -2.2662    0.0000 C   0  0  0  0  0  0  0  0  0  0  0  0
    6.7619   -0.5341    0.0000 C   0  0  0  0  0  0  0  0  0  0  0  0
    7.7619   -2.2662    0.0000 C   0  0  0  0  0  0  0  0  0  0  0  0
    7.7619   -0.5341    0.0000 C   0  0  0  0  0  0  0  0  0  0  0  0
    2.0000   -0.9002    0.0000 C   0  0  0  0  0  0  0  0  0  0  0  0
    2.0000   -1.9002    0.0000 C   0  0  0  0  0  0  0  0  0  0  0  0
    8.2619   -1.4002    0.0000 C   0  0  0  0  0  0  0  0  0  0  0  0
    9.7619   -2.2662    0.0000 C   0  0  0  0  0  0  0  0  0  0  0  0
    5.5359    0.0631    0.0000 H   0  0  0  0  0  0  0  0  0  0  0  0
    5.3715    0.8430    0.0000 H   0  0  0  0  0  0  0  0  0  0  0  0
    3.7742    1.3914    0.0000 H   0  0  0  0  0  0  0  0  0  0  0  0
    3.9385    0.6115    0.0000 H   0  0  0  0  0  0  0  0  0  0  0  0
    5.1787    1.7579    0.0000 H   0  0  0  0  0  0  0  0  0  0  0  0
    5.0143    2.5378    0.0000 H   0  0  0  0  0  0  0  0  0  0  0  0
    4.8709   -2.7942    0.0000 H   0  0  0  0  0  0  0  0  0  0  0  0
    4.4254    3.2083    0.0000 H   0  0  0  0  0  0  0  0  0  0  0  0
    3.5498    3.2557    0.0000 H   0  0  0  0  0  0  0  0  0  0  0  0
    3.5024    2.3802    0.0000 H   0  0  0  0  0  0  0  0  0  0  0  0
    6.4519   -2.8031    0.0000 H   0  0  0  0  0  0  0  0  0  0  0  0
    6.4519    0.0028    0.0000 H   0  0  0  0  0  0  0  0  0  0  0  0
    8.0719   -2.8031    0.0000 H   0  0  0  0  0  0  0  0  0  0  0  0
    8.0719    0.0028    0.0000 H   0  0  0  0  0  0  0  0  0  0  0  0
    1.4631   -0.5902    0.0000 H   0  0  0  0  0  0  0  0  0  0  0  0
    1.4631   -2.2102    0.0000 H   0  0  0  0  0  0  0  0  0  0  0  0
    9.2249   -2.5762    0.0000 H   0  0  0  0  0  0  0  0  0  0  0  0
   10.0719   -2.8031    0.0000 H   0  0  0  0  0  0  0  0  0  0  0  0
   10.2988   -1.9562    0.0000 H   0  0  0  0  0  0  0  0  0  0  0  0
  1 20  1  0  0  0  0
  1 21  1  0  0  0  0
  2  7  1  0  0  0  0
  2 10  1  0  0  0  0
  2 28  1  0  0  0  0
  3  9  2  0  0  0  0
  3 18  1  0  0  0  0
  4 10  2  0  0  0  0
  4 19  1  0  0  0  0
  5  6  1  0  0  0  0
  5  7  2  0  0  0  0
  5  9  1  0  0  0  0
  6  8  1  0  0  0  0
  6 22  1  0  0  0  0
  6 23  1  0  0  0  0
  7 12  1  0  0  0  0
  8 11  1  0  0  0  0
  8 24  1  0  0  0  0
  8 25  1  0  0  0  0
  9 10  1  0  0  0  0
 11 13  1  0  0  0  0
 11 26  1  0  0  0  0
 11 27  1  0  0  0  0
 12 14  2  0  0  0  0
 12 15  1  0  0  0  0
 13 29  1  0  0  0  0
 13 30  1  0  0  0  0
 13 31  1  0  0  0  0
 14 16  1  0  0  0  0
 14 32  1  0  0  0  0
 15 17  2  0  0  0  0
 15 33  1  0  0  0  0
 16 20  2  0  0  0  0
 16 34  1  0  0  0  0
 17 20  1  0  0  0  0
 17 35  1  0  0  0  0
 18 19  2  0  0  0  0
 18 36  1  0  0  0  0
 19 37  1  0  0  0  0
 21 38  1  0  0  0  0
 21 39  1  0  0  0  0
 21 40  1  0  0  0  0
M  END
> <PUBCHEM_COMPOUND_CID>
3641059

> <PUBCHEM_COMPOUND_CANONICALIZED>
1

> <PUBCHEM_CACTVS_COMPLEXITY>
317

> <PUBCHEM_CACTVS_HBOND_ACCEPTOR>
3

> <PUBCHEM_CACTVS_HBOND_DONOR>
1

> <PUBCHEM_CACTVS_ROTATABLE_BOND>
5

> <PUBCHEM_CACTVS_SUBSKEYS>
AAADceB7IAAAAAAAAAAAAAAAAAAAAWAAAAA8QAAAAAAAAFgB/AAAHgAQAAAADAzBnwY/9r7JlACgAzZnZACCiC2xMqAJ2SA+fJiMbuLE+duUNChswBPI6CeQ0OMOIAAAAAAAAABAAAAAAAAAAAAAAAAAAA==

> <PUBCHEM_IUPAC_OPENEYE_NAME>
7-butyl-6-(4-methoxyphenyl)-5H-pyrrolo[2,3-b]pyrazine

> <PUBCHEM_IUPAC_CAS_NAME>
7-butyl-6-(4-methoxyphenyl)-5H-pyrrolo[2,3-b]pyrazine

> <PUBCHEM_IUPAC_NAME>
7-butyl-6-(4-methoxyphenyl)-5H-pyrrolo[2,3-b]pyrazine

> <PUBCHEM_IUPAC_SYSTEMATIC_NAME>
7-butyl-6-(4-methoxyphenyl)-5H-pyrrolo[2,3-b]pyrazine

> <PUBCHEM_IUPAC_TRADITIONAL_NAME>
7-butyl-6-(4-methoxyphenyl)-5H-pyrrolo[2,3-b]pyrazine

> <PUBCHEM_IUPAC_INCHI>
InChI=1S/C17H19N3O/c1-3-4-5-14-15(12-6-8-13(21-2)9-7-12)20-17-16(14)18-10-11-19-17/h6-11H,3-5H2,1-2H3,(H,19,20)

> <PUBCHEM_IUPAC_INCHIKEY>
WVMANZPBOBRWCB-UHFFFAOYSA-N

> <PUBCHEM_XLOGP3_AA>
3.8

> <PUBCHEM_EXACT_MASS>
281.153

> <PUBCHEM_MOLECULAR_FORMULA>
C17H19N3O

> <PUBCHEM_MOLECULAR_WEIGHT>
281.359

> <PUBCHEM_OPENEYE_CAN_SMILES>
CCCCC1=C(NC2=NC=CN=C12)C3=CC=C(C=C3)OC

> <PUBCHEM_OPENEYE_ISO_SMILES>
CCCCC1=C(NC2=NC=CN=C12)C3=CC=C(C=C3)OC

> <PUBCHEM_CACTVS_TPSA>
50.8

> <PUBCHEM_MONOISOTOPIC_WEIGHT>
281.153

> <PUBCHEM_TOTAL_CHARGE>
0

> <PUBCHEM_HEAVY_ATOM_COUNT>
21

> <PUBCHEM_ATOM_DEF_STEREO_COUNT>
0

> <PUBCHEM_ATOM_UDEF_STEREO_COUNT>
0

> <PUBCHEM_BOND_DEF_STEREO_COUNT>
0

> <PUBCHEM_BOND_UDEF_STEREO_COUNT>
0

> <PUBCHEM_ISOTOPIC_ATOM_COUNT>
0

> <PUBCHEM_COMPONENT_COUNT>
1

> <PUBCHEM_CACTVS_TAUTO_COUNT>
3

> <PUBCHEM_COORDINATE_TYPE>
1
5
255

> <PUBCHEM_BONDANNOTATIONS>
12  14  8
12  15  8
14  16  8
15  17  8
16  20  8
17  20  8
18  19  8
2  10  8
2  7  8
3  18  8
3  9  8
4  10  8
4  19  8
5  7  8
5  9  8
9  10  8

$$$$
4879
  -OEChem-11021605012D

 25 27  0     0  0  0  0  0  0999 V2000
    4.6783    0.1316    0.0000 N   0  0  0  0  0  0  0  0  0  0  0  0
    5.2619   -0.6731    0.0000 N   0  0  0  0  0  0  0  0  0  0  0  0
    2.8660    0.3269    0.0000 N   0  0  0  0  0  0  0  0  0  0  0  0
    2.0000   -1.1732    0.0000 N   0  0  0  0  0  0  0  0  0  0  0  0
    2.8660   -2.6732    0.0000 N   0  0  0  0  0  0  0  0  0  0  0  0
    3.7320   -0.1731    0.0000 C   0  0  0  0  0  0  0  0  0  0  0  0
    3.7320   -1.1732    0.0000 C   0  0  0  0  0  0  0  0  0  0  0  0
    4.9889    1.0821    0.0000 C   0  0  0  0  0  0  0  0  0  0  0  0
    4.6783   -1.4779    0.0000 C   0  0  0  0  0  0  0  0  0  0  0  0
    2.8660   -1.6732    0.0000 C   0  0  0  0  0  0  0  0  0  0  0  0
    5.9674    1.2883    0.0000 C   0  0  0  0  0  0  0  0  0  0  0  0
    4.3211    1.8264    0.0000 C   0  0  0  0  0  0  0  0  0  0  0  0
    6.2781    2.2388    0.0000 C   0  0  0  0  0  0  0  0  0  0  0  0
    4.6318    2.7769    0.0000 C   0  0  0  0  0  0  0  0  0  0  0  0
    2.0000   -0.1731    0.0000 C   0  0  0  0  0  0  0  0  0  0  0  0
    5.6103    2.9832    0.0000 C   0  0  0  0  0  0  0  0  0  0  0  0
    4.8709   -2.0672    0.0000 H   0  0  0  0  0  0  0  0  0  0  0  0
    6.3815    0.8269    0.0000 H   0  0  0  0  0  0  0  0  0  0  0  0
    3.7144    1.6986    0.0000 H   0  0  0  0  0  0  0  0  0  0  0  0
    6.8848    2.3667    0.0000 H   0  0  0  0  0  0  0  0  0  0  0  0
    4.2177    3.2384    0.0000 H   0  0  0  0  0  0  0  0  0  0  0  0
    1.4631    0.1369    0.0000 H   0  0  0  0  0  0  0  0  0  0  0  0
    5.8029    3.5725    0.0000 H   0  0  0  0  0  0  0  0  0  0  0  0
    2.3291   -2.9832    0.0000 H   0  0  0  0  0  0  0  0  0  0  0  0
    3.4030   -2.9832    0.0000 H   0  0  0  0  0  0  0  0  0  0  0  0
  1  2  1  0  0  0  0
  1  6  1  0  0  0  0
  1  8  1  0  0  0  0
  2  9  2  0  0  0  0
  3  6  2  0  0  0  0
  3 15  1  0  0  0  0
  4 10  1  0  0  0  0
  4 15  2  0  0  0  0
  5 10  1  0  0  0  0
  5 24  1  0  0  0  0
  5 25  1  0  0  0  0
  6  7  1  0  0  0  0
  7  9  1  0  0  0  0
  7 10  2  0  0  0  0
  8 11  2  0  0  0  0
  8 12  1  0  0  0  0
  9 17  1  0  0  0  0
 11 13  1  0  0  0  0
 11 18  1  0  0  0  0
 12 14  2  0  0  0  0
 12 19  1  0  0  0  0
 13 16  2  0  0  0  0
 13 20  1  0  0  0  0
 14 16  1  0  0  0  0
 14 21  1  0  0  0  0
 15 22  1  0  0  0  0
 16 23  1  0  0  0  0
M  END
> <PUBCHEM_COMPOUND_CID>
4879

> <PUBCHEM_COMPOUND_CANONICALIZED>
1

> <PUBCHEM_CACTVS_COMPLEXITY>
241

> <PUBCHEM_CACTVS_HBOND_ACCEPTOR>
4

> <PUBCHEM_CACTVS_HBOND_DONOR>
1

> <PUBCHEM_CACTVS_ROTATABLE_BOND>
1

> <PUBCHEM_CACTVS_SUBSKEYS>
AAADccBzgAAAAAAAAAAAAAAAAAAAAWAAAAA8QAAAAAAAAFgB/AAAHAAYAAAADAjBGwQ98N5IEACiAjZnZACShCsxgqAd2CAoZJiIKOLA2dGEpAhoiALIyCcQAAAAAAAAAAAAAAAAAAAAAAAAAAAAAAAAAA==

> <PUBCHEM_IUPAC_OPENEYE_NAME>
1-phenylpyrazolo[3,4-d]pyrimidin-4-amine

> <PUBCHEM_IUPAC_CAS_NAME>
1-phenyl-4-pyrazolo[3,4-d]pyrimidinamine

> <PUBCHEM_IUPAC_NAME>
1-phenylpyrazolo[3,4-d]pyrimidin-4-amine

> <PUBCHEM_IUPAC_SYSTEMATIC_NAME>
1-phenylpyrazolo[3,4-d]pyrimidin-4-amine

> <PUBCHEM_IUPAC_TRADITIONAL_NAME>
(1-phenylpyrazolo[3,4-d]pyrimidin-4-yl)amine

> <PUBCHEM_IUPAC_INCHI>
InChI=1S/C11H9N5/c12-10-9-6-15-16(11(9)14-7-13-10)8-4-2-1-3-5-8/h1-7H,(H2,12,13,14)

> <PUBCHEM_IUPAC_INCHIKEY>
KKDPIZPUTYIBFX-UHFFFAOYSA-N

> <PUBCHEM_XLOGP3_AA>
1.5

> <PUBCHEM_EXACT_MASS>
211.086

> <PUBCHEM_MOLECULAR_FORMULA>
C11H9N5

> <PUBCHEM_MOLECULAR_WEIGHT>
211.228

> <PUBCHEM_OPENEYE_CAN_SMILES>
C1=CC=C(C=C1)N2C3=C(C=N2)C(=NC=N3)N

> <PUBCHEM_OPENEYE_ISO_SMILES>
C1=CC=C(C=C1)N2C3=C(C=N2)C(=NC=N3)N

> <PUBCHEM_CACTVS_TPSA>
69.6

> <PUBCHEM_MONOISOTOPIC_WEIGHT>
211.086

> <PUBCHEM_TOTAL_CHARGE>
0

> <PUBCHEM_HEAVY_ATOM_COUNT>
16

> <PUBCHEM_ATOM_DEF_STEREO_COUNT>
0

> <PUBCHEM_ATOM_UDEF_STEREO_COUNT>
0

> <PUBCHEM_BOND_DEF_STEREO_COUNT>
0

> <PUBCHEM_BOND_UDEF_STEREO_COUNT>
0

> <PUBCHEM_ISOTOPIC_ATOM_COUNT>
0

> <PUBCHEM_COMPONENT_COUNT>
1

> <PUBCHEM_CACTVS_TAUTO_COUNT>
5

> <PUBCHEM_COORDINATE_TYPE>
1
5
255

> <PUBCHEM_BONDANNOTATIONS>
1  2  8
1  6  8
11  13  8
12  14  8
13  16  8
14  16  8
2  9  8
3  15  8
3  6  8
4  10  8
4  15  8
6  7  8
7  10  8
7  9  8
8  11  8
8  12  8

$$$$
9969021
  -OEChem-11021605012D

 40 43  0     0  0  0  0  0  0999 V2000
   13.5309   -2.7320    0.0000 Cl  0  0  0  0  0  0  0  0  0  0  0  0
   11.5309    0.7321    0.0000 O   0  0  0  0  0  0  0  0  0  0  0  0
    3.4030    2.7320    0.0000 O   0  0  0  0  0  0  0  0  0  0  0  0
    6.9473    1.5368    0.0000 N   0  0  0  0  0  0  0  0  0  0  0  0
    6.9473   -0.0727    0.0000 N   0  0  0  0  0  0  0  0  0  0  0  0
    2.5369    1.2320    0.0000 N   0  0  0  0  0  0  0  0  0  0  0  0
    6.0010    1.2320    0.0000 C   0  0  0  0  0  0  0  0  0  0  0  0
    7.5309    0.7321    0.0000 C   0  0  0  0  0  0  0  0  0  0  0  0
    6.0010    0.2321    0.0000 C   0  0  0  0  0  0  0  0  0  0  0  0
    8.5309    0.7321    0.0000 C   0  0  0  0  0  0  0  0  0  0  0  0
    5.1350    1.7320    0.0000 C   0  0  0  0  0  0  0  0  0  0  0  0
    5.1350   -0.2679    0.0000 C   0  0  0  0  0  0  0  0  0  0  0  0
    4.2690    1.2320    0.0000 C   0  0  0  0  0  0  0  0  0  0  0  0
    4.2690    0.2321    0.0000 C   0  0  0  0  0  0  0  0  0  0  0  0
    9.0309   -0.1340    0.0000 C   0  0  0  0  0  0  0  0  0  0  0  0
    9.0309    1.5981    0.0000 C   0  0  0  0  0  0  0  0  0  0  0  0
   10.5309    0.7321    0.0000 C   0  0  0  0  0  0  0  0  0  0  0  0
   10.0309   -0.1340    0.0000 C   0  0  0  0  0  0  0  0  0  0  0  0
   10.0309    1.5981    0.0000 C   0  0  0  0  0  0  0  0  0  0  0  0
    3.4030    1.7320    0.0000 C   0  0  0  0  0  0  0  0  0  0  0  0
   12.0309   -0.1340    0.0000 C   0  0  0  0  0  0  0  0  0  0  0  0
   11.5309   -1.0000    0.0000 C   0  0  0  0  0  0  0  0  0  0  0  0
   13.0309   -0.1340    0.0000 C   0  0  0  0  0  0  0  0  0  0  0  0
   12.0309   -1.8660    0.0000 C   0  0  0  0  0  0  0  0  0  0  0  0
   13.5309   -1.0000    0.0000 C   0  0  0  0  0  0  0  0  0  0  0  0
   13.0309   -1.8660    0.0000 C   0  0  0  0  0  0  0  0  0  0  0  0
    7.1399    2.1261    0.0000 H   0  0  0  0  0  0  0  0  0  0  0  0
    5.1350    2.3521    0.0000 H   0  0  0  0  0  0  0  0  0  0  0  0
    5.1350   -0.8879    0.0000 H   0  0  0  0  0  0  0  0  0  0  0  0
    8.7209   -0.6709    0.0000 H   0  0  0  0  0  0  0  0  0  0  0  0
    8.7209    2.1350    0.0000 H   0  0  0  0  0  0  0  0  0  0  0  0
    3.7320   -0.0779    0.0000 H   0  0  0  0  0  0  0  0  0  0  0  0
   10.3409   -0.6709    0.0000 H   0  0  0  0  0  0  0  0  0  0  0  0
   10.3409    2.1350    0.0000 H   0  0  0  0  0  0  0  0  0  0  0  0
   10.9109   -1.0000    0.0000 H   0  0  0  0  0  0  0  0  0  0  0  0
   13.3409    0.4030    0.0000 H   0  0  0  0  0  0  0  0  0  0  0  0
   11.7209   -2.4030    0.0000 H   0  0  0  0  0  0  0  0  0  0  0  0
   14.1509   -1.0000    0.0000 H   0  0  0  0  0  0  0  0  0  0  0  0
    2.0000    1.5420    0.0000 H   0  0  0  0  0  0  0  0  0  0  0  0
    2.5369    0.6121    0.0000 H   0  0  0  0  0  0  0  0  0  0  0  0
  1 26  1  0  0  0  0
  2 17  1  0  0  0  0
  2 21  1  0  0  0  0
  3 20  2  0  0  0  0
  4  7  1  0  0  0  0
  4  8  1  0  0  0  0
  4 27  1  0  0  0  0
  5  8  2  0  0  0  0
  5  9  1  0  0  0  0
  6 20  1  0  0  0  0
  6 39  1  0  0  0  0
  6 40  1  0  0  0  0
  7  9  2  0  0  0  0
  7 11  1  0  0  0  0
  8 10  1  0  0  0  0
  9 12  1  0  0  0  0
 10 15  2  0  0  0  0
 10 16  1  0  0  0  0
 11 13  2  0  0  0  0
 11 28  1  0  0  0  0
 12 14  2  0  0  0  0
 12 29  1  0  0  0  0
 13 14  1  0  0  0  0
 13 20  1  0  0  0  0
 14 32  1  0  0  0  0
 15 18  1  0  0  0  0
 15 30  1  0  0  0  0
 16 19  2  0  0  0  0
 16 31  1  0  0  0  0
 17 18  2  0  0  0  0
 17 19  1  0  0  0  0
 18 33  1  0  0  0  0
 19 34  1  0  0  0  0
 21 22  2  0  0  0  0
 21 23  1  0  0  0  0
 22 24  1  0  0  0  0
 22 35  1  0  0  0  0
 23 25  2  0  0  0  0
 23 36  1  0  0  0  0
 24 26  2  0  0  0  0
 24 37  1  0  0  0  0
 25 26  1  0  0  0  0
 25 38  1  0  0  0  0
M  END
> <PUBCHEM_COMPOUND_CID>
9969021

> <PUBCHEM_COMPOUND_CANONICALIZED>
1

> <PUBCHEM_CACTVS_COMPLEXITY>
489

> <PUBCHEM_CACTVS_HBOND_ACCEPTOR>
3

> <PUBCHEM_CACTVS_HBOND_DONOR>
2

> <PUBCHEM_CACTVS_ROTATABLE_BOND>
4

> <PUBCHEM_CACTVS_SUBSKEYS>
AAADccB7MAAEAAAAAAAAAAAAAAAAAWAAAAAwYMAAAAAAAFgB9AAAHgIQAAAADA6BnyAx1rbJlACoAydydACCiC2lN6AJmSE2ftiMbrLFv5uWOSjs0BPI6aec2QKeKCAAQAAAACBQQACAAAAAQAAAAAAAAA==

> <PUBCHEM_IUPAC_OPENEYE_NAME>
2-[4-(4-chlorophenoxy)phenyl]-3H-benzimidazole-5-carboxamide

> <PUBCHEM_IUPAC_CAS_NAME>
2-[4-(4-chlorophenoxy)phenyl]-3H-benzimidazole-5-carboxamide

> <PUBCHEM_IUPAC_NAME>
2-[4-(4-chlorophenoxy)phenyl]-3H-benzimidazole-5-carboxamide

> <PUBCHEM_IUPAC_SYSTEMATIC_NAME>
2-[4-(4-chloranylphenoxy)phenyl]-3H-benzimidazole-5-carboxamide

> <PUBCHEM_IUPAC_TRADITIONAL_NAME>
2-[4-(4-chlorophenoxy)phenyl]-3H-benzimidazole-5-carboxamide

> <PUBCHEM_IUPAC_INCHI>
InChI=1S/C20H14ClN3O2/c21-14-4-8-16(9-5-14)26-15-6-1-12(2-7-15)20-23-17-10-3-13(19(22)25)11-18(17)24-20/h1-11H,(H2,22,25)(H,23,24)

> <PUBCHEM_IUPAC_INCHIKEY>
UXGJAOIJSROTTN-UHFFFAOYSA-N

> <PUBCHEM_XLOGP3>
4.3

> <PUBCHEM_EXACT_MASS>
363.077

> <PUBCHEM_MOLECULAR_FORMULA>
C20H14ClN3O2

> <PUBCHEM_MOLECULAR_WEIGHT>
363.801

> <PUBCHEM_OPENEYE_CAN_SMILES>
C1=CC(=CC=C1C2=NC3=C(N2)C=C(C=C3)C(=O)N)OC4=CC=C(C=C4)Cl

> <PUBCHEM_OPENEYE_ISO_SMILES>
C1=CC(=CC=C1C2=NC3=C(N2)C=C(C=C3)C(=O)N)OC4=CC=C(C=C4)Cl

> <PUBCHEM_CACTVS_TPSA>
81

> <PUBCHEM_MONOISOTOPIC_WEIGHT>
363.077

> <PUBCHEM_TOTAL_CHARGE>
0

> <PUBCHEM_HEAVY_ATOM_COUNT>
26

> <PUBCHEM_ATOM_DEF_STEREO_COUNT>
0

> <PUBCHEM_ATOM_UDEF_STEREO_COUNT>
0

> <PUBCHEM_BOND_DEF_STEREO_COUNT>
0

> <PUBCHEM_BOND_UDEF_STEREO_COUNT>
0

> <PUBCHEM_ISOTOPIC_ATOM_COUNT>
0

> <PUBCHEM_COMPONENT_COUNT>
1

> <PUBCHEM_CACTVS_TAUTO_COUNT>
7

> <PUBCHEM_COORDINATE_TYPE>
1
5
255

> <PUBCHEM_BONDANNOTATIONS>
10  15  8
10  16  8
11  13  8
12  14  8
13  14  8
15  18  8
16  19  8
17  18  8
17  19  8
21  22  8
21  23  8
22  24  8
23  25  8
24  26  8
25  26  8
4  7  8
4  8  8
5  8  8
5  9  8
7  11  8
7  9  8
9  12  8

$$$$
2051
  -OEChem-11021605012D

 36 38  0     0  0  0  0  0  0999 V2000
    8.0437   -3.5272    0.0000 Cl  0  0  0  0  0  0  0  0  0  0  0  0
    2.8660    0.5272    0.0000 O   0  0  0  0  0  0  0  0  0  0  0  0
    2.8660    2.5272    0.0000 O   0  0  0  0  0  0  0  0  0  0  0  0
    6.3465   -0.5074    0.0000 N   0  0  0  0  0  0  0  0  0  0  0  0
    6.3580    2.5619    0.0000 N   0  0  0  0  0  0  0  0  0  0  0  0
    7.2641    1.0064    0.0000 N   0  0  0  0  0  0  0  0  0  0  0  0
    5.4641    1.0272    0.0000 C   0  0  0  0  0  0  0  0  0  0  0  0
    5.4641    2.0272    0.0000 C   0  0  0  0  0  0  0  0  0  0  0  0
    6.3580    0.4926    0.0000 C   0  0  0  0  0  0  0  0  0  0  0  0
    4.5981    0.5272    0.0000 C   0  0  0  0  0  0  0  0  0  0  0  0
    3.7320    1.0272    0.0000 C   0  0  0  0  0  0  0  0  0  0  0  0
    4.5981    2.5272    0.0000 C   0  0  0  0  0  0  0  0  0  0  0  0
    3.7320    2.0272    0.0000 C   0  0  0  0  0  0  0  0  0  0  0  0
    7.2067   -1.0174    0.0000 C   0  0  0  0  0  0  0  0  0  0  0  0
    7.2641    2.0480    0.0000 C   0  0  0  0  0  0  0  0  0  0  0  0
    7.1951   -2.0173    0.0000 C   0  0  0  0  0  0  0  0  0  0  0  0
    8.0784   -0.5274    0.0000 C   0  0  0  0  0  0  0  0  0  0  0  0
    8.0553   -2.5273    0.0000 C   0  0  0  0  0  0  0  0  0  0  0  0
    8.9386   -1.0374    0.0000 C   0  0  0  0  0  0  0  0  0  0  0  0
    8.9270   -2.0373    0.0000 C   0  0  0  0  0  0  0  0  0  0  0  0
    2.0000    1.0272    0.0000 C   0  0  0  0  0  0  0  0  0  0  0  0
    2.8660    3.5272    0.0000 C   0  0  0  0  0  0  0  0  0  0  0  0
    4.5981   -0.0928    0.0000 H   0  0  0  0  0  0  0  0  0  0  0  0
    4.5981    3.1472    0.0000 H   0  0  0  0  0  0  0  0  0  0  0  0
    5.8060   -0.8112    0.0000 H   0  0  0  0  0  0  0  0  0  0  0  0
    7.7998    2.3601    0.0000 H   0  0  0  0  0  0  0  0  0  0  0  0
    6.6546   -2.3211    0.0000 H   0  0  0  0  0  0  0  0  0  0  0  0
    8.0856    0.0925    0.0000 H   0  0  0  0  0  0  0  0  0  0  0  0
    9.4791   -0.7336    0.0000 H   0  0  0  0  0  0  0  0  0  0  0  0
    9.4604   -2.3535    0.0000 H   0  0  0  0  0  0  0  0  0  0  0  0
    2.3100    1.5642    0.0000 H   0  0  0  0  0  0  0  0  0  0  0  0
    1.4631    1.3372    0.0000 H   0  0  0  0  0  0  0  0  0  0  0  0
    1.6900    0.4903    0.0000 H   0  0  0  0  0  0  0  0  0  0  0  0
    3.4860    3.5272    0.0000 H   0  0  0  0  0  0  0  0  0  0  0  0
    2.8660    4.1472    0.0000 H   0  0  0  0  0  0  0  0  0  0  0  0
    2.2460    3.5272    0.0000 H   0  0  0  0  0  0  0  0  0  0  0  0
  1 18  1  0  0  0  0
  2 11  1  0  0  0  0
  2 21  1  0  0  0  0
  3 13  1  0  0  0  0
  3 22  1  0  0  0  0
  4  9  1  0  0  0  0
  4 14  1  0  0  0  0
  4 25  1  0  0  0  0
  5  8  1  0  0  0  0
  5 15  2  0  0  0  0
  6  9  2  0  0  0  0
  6 15  1  0  0  0  0
  7  8  1  0  0  0  0
  7  9  1  0  0  0  0
  7 10  2  0  0  0  0
  8 12  2  0  0  0  0
 10 11  1  0  0  0  0
 10 23  1  0  0  0  0
 11 13  2  0  0  0  0
 12 13  1  0  0  0  0
 12 24  1  0  0  0  0
 14 16  2  0  0  0  0
 14 17  1  0  0  0  0
 15 26  1  0  0  0  0
 16 18  1  0  0  0  0
 16 27  1  0  0  0  0
 17 19  2  0  0  0  0
 17 28  1  0  0  0  0
 18 20  2  0  0  0  0
 19 20  1  0  0  0  0
 19 29  1  0  0  0  0
 20 30  1  0  0  0  0
 21 31  1  0  0  0  0
 21 32  1  0  0  0  0
 21 33  1  0  0  0  0
 22 34  1  0  0  0  0
 22 35  1  0  0  0  0
 22 36  1  0  0  0  0
M  END
> <PUBCHEM_COMPOUND_CID>
2051

> <PUBCHEM_COMPOUND_CANONICALIZED>
1

> <PUBCHEM_CACTVS_COMPLEXITY>
360

> <PUBCHEM_CACTVS_HBOND_ACCEPTOR>
5

> <PUBCHEM_CACTVS_HBOND_DONOR>
1

> <PUBCHEM_CACTVS_ROTATABLE_BOND>
4

> <PUBCHEM_CACTVS_SUBSKEYS>
AAADccB7MAAEAAAAAAAAAAAAAAAAAAAAAAA8YIAAAAAAAACx9AAAHgIQAAAADA6BniY39vbIFACgAyZjZACCiCkxJ6AJ2CA+7piNLuLF+9uENCpu0BvK6Cew0BMOIEABAgICQABAgAIEBASAAAAAAAAAAA==

> <PUBCHEM_IUPAC_OPENEYE_NAME>
N-(3-chlorophenyl)-6,7-dimethoxy-quinazolin-4-amine

> <PUBCHEM_IUPAC_CAS_NAME>
N-(3-chlorophenyl)-6,7-dimethoxy-4-quinazolinamine

> <PUBCHEM_IUPAC_NAME>
N-(3-chlorophenyl)-6,7-dimethoxyquinazolin-4-amine

> <PUBCHEM_IUPAC_SYSTEMATIC_NAME>
N-(3-chlorophenyl)-6,7-dimethoxy-quinazolin-4-amine

> <PUBCHEM_IUPAC_TRADITIONAL_NAME>
(3-chlorophenyl)-(6,7-dimethoxyquinazolin-4-yl)amine

> <PUBCHEM_IUPAC_INCHI>
InChI=1S/C16H14ClN3O2/c1-21-14-7-12-13(8-15(14)22-2)18-9-19-16(12)20-11-5-3-4-10(17)6-11/h3-9H,1-2H3,(H,18,19,20)

> <PUBCHEM_IUPAC_INCHIKEY>
GFNNBHLJANVSQV-UHFFFAOYSA-N

> <PUBCHEM_XLOGP3_AA>
4

> <PUBCHEM_EXACT_MASS>
315.077

> <PUBCHEM_MOLECULAR_FORMULA>
C16H14ClN3O2

> <PUBCHEM_MOLECULAR_WEIGHT>
315.757

> <PUBCHEM_OPENEYE_CAN_SMILES>
COC1=C(C=C2C(=C1)C(=NC=N2)NC3=CC(=CC=C3)Cl)OC

> <PUBCHEM_OPENEYE_ISO_SMILES>
COC1=C(C=C2C(=C1)C(=NC=N2)NC3=CC(=CC=C3)Cl)OC

> <PUBCHEM_CACTVS_TPSA>
56.3

> <PUBCHEM_MONOISOTOPIC_WEIGHT>
315.077

> <PUBCHEM_TOTAL_CHARGE>
0

> <PUBCHEM_HEAVY_ATOM_COUNT>
22

> <PUBCHEM_ATOM_DEF_STEREO_COUNT>
0

> <PUBCHEM_ATOM_UDEF_STEREO_COUNT>
0

> <PUBCHEM_BOND_DEF_STEREO_COUNT>
0

> <PUBCHEM_BOND_UDEF_STEREO_COUNT>
0

> <PUBCHEM_ISOTOPIC_ATOM_COUNT>
0

> <PUBCHEM_COMPONENT_COUNT>
1

> <PUBCHEM_CACTVS_TAUTO_COUNT>
3

> <PUBCHEM_COORDINATE_TYPE>
1
5
255

> <PUBCHEM_BONDANNOTATIONS>
10  11  8
11  13  8
12  13  8
14  16  8
14  17  8
16  18  8
17  19  8
18  20  8
19  20  8
5  15  8
5  8  8
6  15  8
6  9  8
7  10  8
7  8  8
7  9  8
8  12  8

$$$$
2856
  -OEChem-11021605012D

 43 45  0     0  0  0  0  0  0999 V2000
    3.4030    4.4050    0.0000 Cl  0  0  0  0  0  0  0  0  0  0  0  0
    2.5369   -4.0950    0.0000 O   0  0  0  0  0  0  0  0  0  0  0  0
    6.9473   -1.3997    0.0000 N   0  0  0  0  0  0  0  0  0  0  0  0
    6.9473    0.2097    0.0000 N   0  0  0  0  0  0  0  0  0  0  0  0
    5.1350   -1.5950    0.0000 N   0  0  0  0  0  0  0  0  0  0  0  0
    5.1350    1.4050    0.0000 N   0  0  0  0  0  0  0  0  0  0  0  0
    4.2690   -0.0950    0.0000 N   0  0  0  0  0  0  0  0  0  0  0  0
    3.4030   -1.5950    0.0000 N   0  0  0  0  0  0  0  0  0  0  0  0
    7.2579   -2.3502    0.0000 C   0  0  0  0  0  0  0  0  0  0  0  0
    6.0010   -1.0950    0.0000 C   0  0  0  0  0  0  0  0  0  0  0  0
    6.0010   -0.0950    0.0000 C   0  0  0  0  0  0  0  0  0  0  0  0
    8.2364   -2.5565    0.0000 C   0  0  0  0  0  0  0  0  0  0  0  0
    6.5901   -3.0946    0.0000 C   0  0  0  0  0  0  0  0  0  0  0  0
    7.5309   -0.5950    0.0000 C   0  0  0  0  0  0  0  0  0  0  0  0
    5.1350    0.4050    0.0000 C   0  0  0  0  0  0  0  0  0  0  0  0
    4.2690   -1.0950    0.0000 C   0  0  0  0  0  0  0  0  0  0  0  0
    4.2690    1.9050    0.0000 C   0  0  0  0  0  0  0  0  0  0  0  0
    3.4030   -2.5950    0.0000 C   0  0  0  0  0  0  0  0  0  0  0  0
    2.5369   -3.0950    0.0000 C   0  0  0  0  0  0  0  0  0  0  0  0
    4.2690    2.9050    0.0000 C   0  0  0  0  0  0  0  0  0  0  0  0
    3.4030    1.4050    0.0000 C   0  0  0  0  0  0  0  0  0  0  0  0
    3.4030    3.4050    0.0000 C   0  0  0  0  0  0  0  0  0  0  0  0
    2.5369    1.9050    0.0000 C   0  0  0  0  0  0  0  0  0  0  0  0
    2.5369    2.9050    0.0000 C   0  0  0  0  0  0  0  0  0  0  0  0
    6.6512   -2.2224    0.0000 H   0  0  0  0  0  0  0  0  0  0  0  0
    6.1286   -2.6805    0.0000 H   0  0  0  0  0  0  0  0  0  0  0  0
    8.1086   -3.1632    0.0000 H   0  0  0  0  0  0  0  0  0  0  0  0
    8.8431   -2.6843    0.0000 H   0  0  0  0  0  0  0  0  0  0  0  0
    8.3643   -1.9498    0.0000 H   0  0  0  0  0  0  0  0  0  0  0  0
    6.1760   -3.5560    0.0000 H   0  0  0  0  0  0  0  0  0  0  0  0
    7.0515   -3.5086    0.0000 H   0  0  0  0  0  0  0  0  0  0  0  0
    8.1509   -0.5950    0.0000 H   0  0  0  0  0  0  0  0  0  0  0  0
    5.6720    1.7150    0.0000 H   0  0  0  0  0  0  0  0  0  0  0  0
    2.8660   -1.2850    0.0000 H   0  0  0  0  0  0  0  0  0  0  0  0
    3.6150   -3.1776    0.0000 H   0  0  0  0  0  0  0  0  0  0  0  0
    4.0135   -2.4873    0.0000 H   0  0  0  0  0  0  0  0  0  0  0  0
    2.3249   -2.5124    0.0000 H   0  0  0  0  0  0  0  0  0  0  0  0
    1.9264   -3.2027    0.0000 H   0  0  0  0  0  0  0  0  0  0  0  0
    4.8059    3.2150    0.0000 H   0  0  0  0  0  0  0  0  0  0  0  0
    3.4030    0.7850    0.0000 H   0  0  0  0  0  0  0  0  0  0  0  0
    2.0000    1.5950    0.0000 H   0  0  0  0  0  0  0  0  0  0  0  0
    2.0000    3.2150    0.0000 H   0  0  0  0  0  0  0  0  0  0  0  0
    2.0000   -4.4050    0.0000 H   0  0  0  0  0  0  0  0  0  0  0  0
  1 22  1  0  0  0  0
  2 19  1  0  0  0  0
  2 43  1  0  0  0  0
  3  9  1  0  0  0  0
  3 10  1  0  0  0  0
  3 14  1  0  0  0  0
  4 11  1  0  0  0  0
  4 14  2  0  0  0  0
  5 10  2  0  0  0  0
  5 16  1  0  0  0  0
  6 15  1  0  0  0  0
  6 17  1  0  0  0  0
  6 33  1  0  0  0  0
  7 15  1  0  0  0  0
  7 16  2  0  0  0  0
  8 16  1  0  0  0  0
  8 18  1  0  0  0  0
  8 34  1  0  0  0  0
  9 12  1  0  0  0  0
  9 13  1  0  0  0  0
  9 25  1  0  0  0  0
 10 11  1  0  0  0  0
 11 15  2  0  0  0  0
 12 27  1  0  0  0  0
 12 28  1  0  0  0  0
 12 29  1  0  0  0  0
 13 26  1  0  0  0  0
 13 30  1  0  0  0  0
 13 31  1  0  0  0  0
 14 32  1  0  0  0  0
 17 20  2  0  0  0  0
 17 21  1  0  0  0  0
 18 19  1  0  0  0  0
 18 35  1  0  0  0  0
 18 36  1  0  0  0  0
 19 37  1  0  0  0  0
 19 38  1  0  0  0  0
 20 22  1  0  0  0  0
 20 39  1  0  0  0  0
 21 23  2  0  0  0  0
 21 40  1  0  0  0  0
 22 24  2  0  0  0  0
 23 24  1  0  0  0  0
 23 41  1  0  0  0  0
 24 42  1  0  0  0  0
M  END
> <PUBCHEM_COMPOUND_CID>
2856

> <PUBCHEM_COMPOUND_CANONICALIZED>
1

> <PUBCHEM_CACTVS_COMPLEXITY>
401

> <PUBCHEM_CACTVS_HBOND_ACCEPTOR>
6

> <PUBCHEM_CACTVS_HBOND_DONOR>
3

> <PUBCHEM_CACTVS_ROTATABLE_BOND>
6

> <PUBCHEM_CACTVS_SUBSKEYS>
AAADceB7oAAEAAAAAAAAAAAAAAAAAWAAAAA8QAAAAAAAAFgB/AAAHgIQCAAACCrhlyY38L/MEgCgASZjZACCgC0xF6AJ2KAodpiKeGLB29GUJAhokALYyCcQAAAAAAAAAAIAAAAAAAAABAAAAAAAAAAAAA==

> <PUBCHEM_IUPAC_OPENEYE_NAME>
2-[[6-(3-chloroanilino)-9-isopropyl-purin-2-yl]amino]ethanol

> <PUBCHEM_IUPAC_CAS_NAME>
2-[[6-(3-chloroanilino)-9-propan-2-yl-2-purinyl]amino]ethanol

> <PUBCHEM_IUPAC_NAME>
2-[[6-(3-chloroanilino)-9-propan-2-ylpurin-2-yl]amino]ethanol

> <PUBCHEM_IUPAC_SYSTEMATIC_NAME>
2-[[6-[(3-chlorophenyl)amino]-9-propan-2-yl-purin-2-yl]amino]ethanol

> <PUBCHEM_IUPAC_TRADITIONAL_NAME>
2-[[6-(3-chloroanilino)-9-isopropyl-purin-2-yl]amino]ethanol

> <PUBCHEM_IUPAC_INCHI>
InChI=1S/C16H19ClN6O/c1-10(2)23-9-19-13-14(20-12-5-3-4-11(17)8-12)21-16(18-6-7-24)22-15(13)23/h3-5,8-10,24H,6-7H2,1-2H3,(H2,18,20,21,22)

> <PUBCHEM_IUPAC_INCHIKEY>
XZEFMZCNXDQXOZ-UHFFFAOYSA-N

> <PUBCHEM_XLOGP3_AA>
2.9

> <PUBCHEM_EXACT_MASS>
346.131

> <PUBCHEM_MOLECULAR_FORMULA>
C16H19ClN6O

> <PUBCHEM_MOLECULAR_WEIGHT>
346.819

> <PUBCHEM_OPENEYE_CAN_SMILES>
CC(C)N1C=NC2=C1N=C(N=C2NC3=CC(=CC=C3)Cl)NCCO

> <PUBCHEM_OPENEYE_ISO_SMILES>
CC(C)N1C=NC2=C1N=C(N=C2NC3=CC(=CC=C3)Cl)NCCO

> <PUBCHEM_CACTVS_TPSA>
87.9

> <PUBCHEM_MONOISOTOPIC_WEIGHT>
346.131

> <PUBCHEM_TOTAL_CHARGE>
0

> <PUBCHEM_HEAVY_ATOM_COUNT>
24

> <PUBCHEM_ATOM_DEF_STEREO_COUNT>
0

> <PUBCHEM_ATOM_UDEF_STEREO_COUNT>
0

> <PUBCHEM_BOND_DEF_STEREO_COUNT>
0

> <PUBCHEM_BOND_UDEF_STEREO_COUNT>
0

> <PUBCHEM_ISOTOPIC_ATOM_COUNT>
0

> <PUBCHEM_COMPONENT_COUNT>
1

> <PUBCHEM_CACTVS_TAUTO_COUNT>
9

> <PUBCHEM_COORDINATE_TYPE>
1
5
255

> <PUBCHEM_BONDANNOTATIONS>
10  11  8
11  15  8
17  20  8
17  21  8
20  22  8
21  23  8
22  24  8
23  24  8
3  10  8
3  14  8
4  11  8
4  14  8
5  10  8
5  16  8
7  15  8
7  16  8

$$$$
448042
  -OEChem-11021605012D

 39 40  0     1  0  0  0  0  0999 V2000
    2.5369    1.3100    0.0000 O   0  0  0  0  0  0  0  0  0  0  0  0
    2.5369   -3.6900    0.0000 N   0  0  0  0  0  0  0  0  0  0  0  0
    4.2690    1.3100    0.0000 N   0  0  0  0  0  0  0  0  0  0  0  0
    4.2690    4.3100    0.0000 N   0  0  0  0  0  0  0  0  0  0  0  0
    3.4030   -2.1900    0.0000 C   0  0  0  0  0  0  0  0  0  0  0  0
    4.2690   -1.6900    0.0000 C   0  0  0  0  0  0  0  0  0  0  0  0
    2.5369   -1.6900    0.0000 C   0  0  0  0  0  0  0  0  0  0  0  0
    3.4030   -0.1900    0.0000 C   0  0  0  0  0  0  0  0  0  0  0  0
    4.2690   -0.6900    0.0000 C   0  0  0  0  0  0  0  0  0  0  0  0
    2.5369   -0.6900    0.0000 C   0  0  0  0  0  0  0  0  0  0  0  0
    3.4030   -3.1900    0.0000 C   0  0  1  0  0  0  0  0  0  0  0  0
    3.4030    0.8100    0.0000 C   0  0  0  0  0  0  0  0  0  0  0  0
    4.2690   -3.6900    0.0000 C   0  0  0  0  0  0  0  0  0  0  0  0
    4.2690    2.3100    0.0000 C   0  0  0  0  0  0  0  0  0  0  0  0
    5.1350    2.8100    0.0000 C   0  0  0  0  0  0  0  0  0  0  0  0
    3.4030    2.8100    0.0000 C   0  0  0  0  0  0  0  0  0  0  0  0
    5.1350    3.8100    0.0000 C   0  0  0  0  0  0  0  0  0  0  0  0
    3.4030    3.8100    0.0000 C   0  0  0  0  0  0  0  0  0  0  0  0
    3.9399   -2.5000    0.0000 H   0  0  0  0  0  0  0  0  0  0  0  0
    4.4810   -2.2726    0.0000 H   0  0  0  0  0  0  0  0  0  0  0  0
    4.8796   -1.5823    0.0000 H   0  0  0  0  0  0  0  0  0  0  0  0
    1.9264   -1.5823    0.0000 H   0  0  0  0  0  0  0  0  0  0  0  0
    2.3249   -2.2726    0.0000 H   0  0  0  0  0  0  0  0  0  0  0  0
    3.9399    0.1200    0.0000 H   0  0  0  0  0  0  0  0  0  0  0  0
    4.8796   -0.7977    0.0000 H   0  0  0  0  0  0  0  0  0  0  0  0
    4.4810   -0.1074    0.0000 H   0  0  0  0  0  0  0  0  0  0  0  0
    2.3249   -0.1074    0.0000 H   0  0  0  0  0  0  0  0  0  0  0  0
    1.9264   -0.7977    0.0000 H   0  0  0  0  0  0  0  0  0  0  0  0
    3.4030   -3.8100    0.0000 H   0  0  0  0  0  0  0  0  0  0  0  0
    3.9590   -4.2269    0.0000 H   0  0  0  0  0  0  0  0  0  0  0  0
    4.8059   -4.0000    0.0000 H   0  0  0  0  0  0  0  0  0  0  0  0
    4.5790   -3.1531    0.0000 H   0  0  0  0  0  0  0  0  0  0  0  0
    2.5369   -4.3100    0.0000 H   0  0  0  0  0  0  0  0  0  0  0  0
    2.0000   -3.3800    0.0000 H   0  0  0  0  0  0  0  0  0  0  0  0
    4.8059    1.0000    0.0000 H   0  0  0  0  0  0  0  0  0  0  0  0
    5.6720    2.5000    0.0000 H   0  0  0  0  0  0  0  0  0  0  0  0
    2.8660    2.5000    0.0000 H   0  0  0  0  0  0  0  0  0  0  0  0
    5.6720    4.1200    0.0000 H   0  0  0  0  0  0  0  0  0  0  0  0
    2.8660    4.1200    0.0000 H   0  0  0  0  0  0  0  0  0  0  0  0
  1 12  2  0  0  0  0
 11  2  1  1  0  0  0
  2 33  1  0  0  0  0
  2 34  1  0  0  0  0
  3 12  1  0  0  0  0
  3 14  1  0  0  0  0
  3 35  1  0  0  0  0
  4 17  2  0  0  0  0
  4 18  1  0  0  0  0
  5  6  1  0  0  0  0
  5  7  1  0  0  0  0
  5 11  1  0  0  0  0
  5 19  1  0  0  0  0
  6  9  1  0  0  0  0
  6 20  1  0  0  0  0
  6 21  1  0  0  0  0
  7 10  1  0  0  0  0
  7 22  1  0  0  0  0
  7 23  1  0  0  0  0
  8  9  1  0  0  0  0
  8 10  1  0  0  0  0
  8 12  1  0  0  0  0
  8 24  1  0  0  0  0
  9 25  1  0  0  0  0
  9 26  1  0  0  0  0
 10 27  1  0  0  0  0
 10 28  1  0  0  0  0
 11 13  1  0  0  0  0
 11 29  1  0  0  0  0
 13 30  1  0  0  0  0
 13 31  1  0  0  0  0
 13 32  1  0  0  0  0
 14 15  2  0  0  0  0
 14 16  1  0  0  0  0
 15 17  1  0  0  0  0
 15 36  1  0  0  0  0
 16 18  2  0  0  0  0
 16 37  1  0  0  0  0
 17 38  1  0  0  0  0
 18 39  1  0  0  0  0
M  END
> <PUBCHEM_COMPOUND_CID>
448042

> <PUBCHEM_COMPOUND_CANONICALIZED>
1

> <PUBCHEM_CACTVS_COMPLEXITY>
268

> <PUBCHEM_CACTVS_HBOND_ACCEPTOR>
3

> <PUBCHEM_CACTVS_HBOND_DONOR>
2

> <PUBCHEM_CACTVS_ROTATABLE_BOND>
3

> <PUBCHEM_CACTVS_SUBSKEYS>
AAADceBzIAAAAAAAAAAAAAAAAAAAAAAAAAA8QAAAAAAAAAABgAAAHgAQAAAADSjBkgQ+wJLIEACoADV3VACCgCAxAiAI2KE4ZJgIIHLA0dGEJAhglADIyAcYiMCOAAAAAAAAAACAAAAAAAAAAAAAAAAAAA==

> <PUBCHEM_IUPAC_OPENEYE_NAME>
4-[(1R)-1-aminoethyl]-N-(4-pyridyl)cyclohexanecarboxamide

> <PUBCHEM_IUPAC_CAS_NAME>
4-[(1R)-1-aminoethyl]-N-pyridin-4-yl-1-cyclohexanecarboxamide

> <PUBCHEM_IUPAC_NAME>
4-[(1R)-1-aminoethyl]-N-pyridin-4-ylcyclohexane-1-carboxamide

> <PUBCHEM_IUPAC_SYSTEMATIC_NAME>
4-[(1R)-1-azanylethyl]-N-pyridin-4-yl-cyclohexane-1-carboxamide

> <PUBCHEM_IUPAC_TRADITIONAL_NAME>
4-[(1R)-1-aminoethyl]-N-(4-pyridyl)cyclohexanecarboxamide

> <PUBCHEM_IUPAC_INCHI>
InChI=1S/C14H21N3O/c1-10(15)11-2-4-12(5-3-11)14(18)17-13-6-8-16-9-7-13/h6-12H,2-5,15H2,1H3,(H,16,17,18)/t10-,11?,12?/m1/s1

> <PUBCHEM_IUPAC_INCHIKEY>
IYOZTVGMEWJPKR-VOMCLLRMSA-N

> <PUBCHEM_XLOGP3_AA>
0.9

> <PUBCHEM_EXACT_MASS>
247.168

> <PUBCHEM_MOLECULAR_FORMULA>
C14H21N3O

> <PUBCHEM_MOLECULAR_WEIGHT>
247.342

> <PUBCHEM_OPENEYE_CAN_SMILES>
CC(C1CCC(CC1)C(=O)NC2=CC=NC=C2)N

> <PUBCHEM_OPENEYE_ISO_SMILES>
C[C@H](C1CCC(CC1)C(=O)NC2=CC=NC=C2)N

> <PUBCHEM_CACTVS_TPSA>
68

> <PUBCHEM_MONOISOTOPIC_WEIGHT>
247.168

> <PUBCHEM_TOTAL_CHARGE>
0

> <PUBCHEM_HEAVY_ATOM_COUNT>
18

> <PUBCHEM_ATOM_DEF_STEREO_COUNT>
1

> <PUBCHEM_ATOM_UDEF_STEREO_COUNT>
0

> <PUBCHEM_BOND_DEF_STEREO_COUNT>
0

> <PUBCHEM_BOND_UDEF_STEREO_COUNT>
0

> <PUBCHEM_ISOTOPIC_ATOM_COUNT>
0

> <PUBCHEM_COMPONENT_COUNT>
1

> <PUBCHEM_CACTVS_TAUTO_COUNT>
7

> <PUBCHEM_COORDINATE_TYPE>
1
5
255

> <PUBCHEM_BONDANNOTATIONS>
14  15  8
14  16  8
15  17  8
16  18  8
11  2  5
4  17  8
4  18  8

$$$$
438981
  -OEChem-11021605012D

 21 23  0     0  0  0  0  0  0999 V2000
    4.6660    0.4090    0.0000 N   0  0  0  0  0  0  0  0  0  0  0  0
    4.6660   -1.5910    0.0000 N   0  0  0  0  0  0  0  0  0  0  0  0
    7.0619   -0.5910    0.0000 N   0  0  0  0  0  0  0  0  0  0  0  0
    6.4783   -1.3958    0.0000 N   0  0  0  0  0  0  0  0  0  0  0  0
    6.7889    1.1642    0.0000 N   0  0  0  0  0  0  0  0  0  0  0  0
    5.5321   -0.0910    0.0000 C   0  0  0  0  0  0  0  0  0  0  0  0
    5.5321   -1.0910    0.0000 C   0  0  0  0  0  0  0  0  0  0  0  0
    3.8000   -0.0910    0.0000 C   0  0  0  0  0  0  0  0  0  0  0  0
    3.8000   -1.0910    0.0000 C   0  0  0  0  0  0  0  0  0  0  0  0
    6.4783    0.2137    0.0000 C   0  0  0  0  0  0  0  0  0  0  0  0
    2.9061    0.4436    0.0000 C   0  0  0  0  0  0  0  0  0  0  0  0
    2.9061   -1.6257    0.0000 C   0  0  0  0  0  0  0  0  0  0  0  0
    2.0000   -0.0702    0.0000 C   0  0  0  0  0  0  0  0  0  0  0  0
    2.0000   -1.1118    0.0000 C   0  0  0  0  0  0  0  0  0  0  0  0
    7.6819   -0.5910    0.0000 H   0  0  0  0  0  0  0  0  0  0  0  0
    2.9132    1.0636    0.0000 H   0  0  0  0  0  0  0  0  0  0  0  0
    2.9132   -2.2456    0.0000 H   0  0  0  0  0  0  0  0  0  0  0  0
    1.4643    0.2419    0.0000 H   0  0  0  0  0  0  0  0  0  0  0  0
    1.4643   -1.4239    0.0000 H   0  0  0  0  0  0  0  0  0  0  0  0
    7.3956    1.2921    0.0000 H   0  0  0  0  0  0  0  0  0  0  0  0
    6.3749    1.6257    0.0000 H   0  0  0  0  0  0  0  0  0  0  0  0
  1  6  1  0  0  0  0
  1  8  2  0  0  0  0
  2  7  1  0  0  0  0
  2  9  2  0  0  0  0
  3  4  1  0  0  0  0
  3 10  1  0  0  0  0
  3 15  1  0  0  0  0
  4  7  2  0  0  0  0
  5 10  1  0  0  0  0
  5 20  1  0  0  0  0
  5 21  1  0  0  0  0
  6  7  1  0  0  0  0
  6 10  2  0  0  0  0
  8  9  1  0  0  0  0
  8 11  1  0  0  0  0
  9 12  1  0  0  0  0
 11 13  2  0  0  0  0
 11 16  1  0  0  0  0
 12 14  2  0  0  0  0
 12 17  1  0  0  0  0
 13 14  1  0  0  0  0
 13 18  1  0  0  0  0
 14 19  1  0  0  0  0
M  END
> <PUBCHEM_COMPOUND_CID>
438981

> <PUBCHEM_COMPOUND_CANONICALIZED>
1

> <PUBCHEM_CACTVS_COMPLEXITY>
221

> <PUBCHEM_CACTVS_HBOND_ACCEPTOR>
4

> <PUBCHEM_CACTVS_HBOND_DONOR>
2

> <PUBCHEM_CACTVS_ROTATABLE_BOND>
0

> <PUBCHEM_CACTVS_SUBSKEYS>
AAADcYBzgAAAAAAAAAAAAAAAAAAAAWAAAAA8QAAAAAAAAFix/gAAHAAYAAAACAiBFwAx8L5rEACiASZiZACShC+hEqAduSAwdJiIaOLA2dGUpAhwiALIyCcQAAAAAAAAAAAAACAAAAAAAAAAQAAAAAAAAA==

> <PUBCHEM_IUPAC_OPENEYE_NAME>
2H-pyrazolo[4,3-b]quinoxalin-3-amine

> <PUBCHEM_IUPAC_CAS_NAME>
2H-pyrazolo[4,3-b]quinoxalin-3-amine

> <PUBCHEM_IUPAC_NAME>
2H-pyrazolo[4,3-b]quinoxalin-3-amine

> <PUBCHEM_IUPAC_SYSTEMATIC_NAME>
2H-pyrazolo[4,3-b]quinoxalin-3-amine

> <PUBCHEM_IUPAC_TRADITIONAL_NAME>
2H-pyrazolo[4,3-b]quinoxalin-3-ylamine

> <PUBCHEM_IUPAC_INCHI>
InChI=1S/C9H7N5/c10-8-7-9(14-13-8)12-6-4-2-1-3-5(6)11-7/h1-4H,(H3,10,12,13,14)

> <PUBCHEM_IUPAC_INCHIKEY>
DWHVZCLBMTZRQM-UHFFFAOYSA-N

> <PUBCHEM_XLOGP3_AA>
0.9

> <PUBCHEM_EXACT_MASS>
185.07

> <PUBCHEM_MOLECULAR_FORMULA>
C9H7N5

> <PUBCHEM_MOLECULAR_WEIGHT>
185.19

> <PUBCHEM_OPENEYE_CAN_SMILES>
C1=CC2=NC3=C(NN=C3N=C2C=C1)N

> <PUBCHEM_OPENEYE_ISO_SMILES>
C1=CC2=NC3=C(NN=C3N=C2C=C1)N

> <PUBCHEM_CACTVS_TPSA>
80.5

> <PUBCHEM_MONOISOTOPIC_WEIGHT>
185.07

> <PUBCHEM_TOTAL_CHARGE>
0

> <PUBCHEM_HEAVY_ATOM_COUNT>
14

> <PUBCHEM_ATOM_DEF_STEREO_COUNT>
0

> <PUBCHEM_ATOM_UDEF_STEREO_COUNT>
0

> <PUBCHEM_BOND_DEF_STEREO_COUNT>
0

> <PUBCHEM_BOND_UDEF_STEREO_COUNT>
0

> <PUBCHEM_ISOTOPIC_ATOM_COUNT>
0

> <PUBCHEM_COMPONENT_COUNT>
1

> <PUBCHEM_CACTVS_TAUTO_COUNT>
23

> <PUBCHEM_COORDINATE_TYPE>
1
5
255

> <PUBCHEM_BONDANNOTATIONS>
1  6  8
1  8  8
11  13  8
12  14  8
13  14  8
2  7  8
2  9  8
3  10  8
3  4  8
4  7  8
6  10  8
6  7  8
8  11  8
8  9  8
9  12  8

$$$$
9829523
  -OEChem-11021605012D

 73 81  0     1  0  0  0  0  0999 V2000
    7.9672    2.8707    0.0000 O   0  0  0  0  0  0  0  0  0  0  0  0
    5.7324   -1.1211    0.0000 O   0  0  0  0  0  0  0  0  0  0  0  0
   13.6813   -0.0099    0.0000 O   0  0  0  0  0  0  0  0  0  0  0  0
    3.5934    1.9211    0.0000 O   0  0  0  0  0  0  0  0  0  0  0  0
    8.8555   -0.4438    0.0000 N   0  0  0  0  0  0  0  0  0  0  0  0
    9.8555    1.2882    0.0000 N   0  0  0  0  0  0  0  0  0  0  0  0
    4.0417    0.2480    0.0000 N   0  0  0  0  0  0  0  0  0  0  0  0
   13.0443   -1.7076    0.0000 N   0  0  0  0  0  0  0  0  0  0  0  0
    7.4894    0.9222    0.0000 C   0  0  2  0  0  0  0  0  0  0  0  0
    5.7847   -0.1225    0.0000 C   0  0  1  0  0  0  0  0  0  0  0  0
    7.2306    1.8881    0.0000 C   0  0  1  0  0  0  0  0  0  0  0  0
    5.0076    0.5069    0.0000 C   0  0  1  0  0  0  0  0  0  0  0  0
    5.3660    1.4404    0.0000 C   0  0  0  0  0  0  0  0  0  0  0  0
    9.8555   -0.4438    0.0000 C   0  0  0  0  0  0  0  0  0  0  0  0
   10.3555    0.4222    0.0000 C   0  0  0  0  0  0  0  0  0  0  0  0
   10.3623   -1.3538    0.0000 C   0  0  0  0  0  0  0  0  0  0  0  0
   11.3970    0.4382    0.0000 C   0  0  0  0  0  0  0  0  0  0  0  0
    8.7095   -1.4269    0.0000 C   0  0  0  0  0  0  0  0  0  0  0  0
    7.7483   -0.0437    0.0000 C   0  0  0  0  0  0  0  0  0  0  0  0
   10.6338    1.9061    0.0000 C   0  0  0  0  0  0  0  0  0  0  0  0
    9.5602   -1.9406    0.0000 C   0  0  0  0  0  0  0  0  0  0  0  0
   11.4039   -1.3619    0.0000 C   0  0  0  0  0  0  0  0  0  0  0  0
   11.9247   -0.4598    0.0000 C   0  0  0  0  0  0  0  0  0  0  0  0
   11.5041    1.4263    0.0000 C   0  0  0  0  0  0  0  0  0  0  0  0
   12.0988   -2.1296    0.0000 C   0  0  0  0  0  0  0  0  0  0  0  0
    7.7954   -1.9127    0.0000 C   0  0  0  0  0  0  0  0  0  0  0  0
   12.9370   -0.6777    0.0000 C   0  0  0  0  0  0  0  0  0  0  0  0
   10.5975    2.9407    0.0000 C   0  0  0  0  0  0  0  0  0  0  0  0
    9.5558   -2.9758    0.0000 C   0  0  0  0  0  0  0  0  0  0  0  0
    3.7828   -0.7179    0.0000 C   0  0  0  0  0  0  0  0  0  0  0  0
   12.3984    1.9477    0.0000 C   0  0  0  0  0  0  0  0  0  0  0  0
    3.3346    0.9551    0.0000 C   0  0  0  0  0  0  0  0  0  0  0  0
    4.8414   -1.5751    0.0000 C   0  0  0  0  0  0  0  0  0  0  0  0
    7.7670   -2.9475    0.0000 C   0  0  0  0  0  0  0  0  0  0  0  0
    8.6532   -3.4826    0.0000 C   0  0  0  0  0  0  0  0  0  0  0  0
   11.4795    3.4826    0.0000 C   0  0  0  0  0  0  0  0  0  0  0  0
   12.3860    2.9828    0.0000 C   0  0  0  0  0  0  0  0  0  0  0  0
    2.3686    0.6963    0.0000 C   0  0  0  0  0  0  0  0  0  0  0  0
    2.1098   -0.2696    0.0000 C   0  0  0  0  0  0  0  0  0  0  0  0
    1.6615    1.4034    0.0000 C   0  0  0  0  0  0  0  0  0  0  0  0
    1.1439   -0.5284    0.0000 C   0  0  0  0  0  0  0  0  0  0  0  0
    0.6956    1.1446    0.0000 C   0  0  0  0  0  0  0  0  0  0  0  0
    0.4368    0.1787    0.0000 C   0  0  0  0  0  0  0  0  0  0  0  0
    5.2183   -0.3746    0.0000 H   0  0  0  0  0  0  0  0  0  0  0  0
    7.0106    2.7091    0.0000 H   0  0  0  0  0  0  0  0  0  0  0  0
    4.8787   -0.0996    0.0000 H   0  0  0  0  0  0  0  0  0  0  0  0
    4.7545    1.5428    0.0000 H   0  0  0  0  0  0  0  0  0  0  0  0
    5.3443    2.0601    0.0000 H   0  0  0  0  0  0  0  0  0  0  0  0
    8.3471    0.1167    0.0000 H   0  0  0  0  0  0  0  0  0  0  0  0
    7.9087   -0.6426    0.0000 H   0  0  0  0  0  0  0  0  0  0  0  0
    7.1494   -0.2042    0.0000 H   0  0  0  0  0  0  0  0  0  0  0  0
   12.4095   -2.6661    0.0000 H   0  0  0  0  0  0  0  0  0  0  0  0
   11.5979   -2.4950    0.0000 H   0  0  0  0  0  0  0  0  0  0  0  0
    7.2684   -1.5861    0.0000 H   0  0  0  0  0  0  0  0  0  0  0  0
   10.0511    3.2338    0.0000 H   0  0  0  0  0  0  0  0  0  0  0  0
   10.0902   -3.2902    0.0000 H   0  0  0  0  0  0  0  0  0  0  0  0
    4.3817   -0.8784    0.0000 H   0  0  0  0  0  0  0  0  0  0  0  0
    3.6224   -1.3168    0.0000 H   0  0  0  0  0  0  0  0  0  0  0  0
    3.1840   -0.5574    0.0000 H   0  0  0  0  0  0  0  0  0  0  0  0
   12.9378    1.6421    0.0000 H   0  0  0  0  0  0  0  0  0  0  0  0
   13.5813   -2.0176    0.0000 H   0  0  0  0  0  0  0  0  0  0  0  0
    5.1229   -2.1275    0.0000 H   0  0  0  0  0  0  0  0  0  0  0  0
    4.2890   -1.8566    0.0000 H   0  0  0  0  0  0  0  0  0  0  0  0
    4.5599   -1.0227    0.0000 H   0  0  0  0  0  0  0  0  0  0  0  0
    7.2229   -3.2448    0.0000 H   0  0  0  0  0  0  0  0  0  0  0  0
    8.6433   -4.1026    0.0000 H   0  0  0  0  0  0  0  0  0  0  0  0
   11.4649    4.1025    0.0000 H   0  0  0  0  0  0  0  0  0  0  0  0
   12.9179    3.3013    0.0000 H   0  0  0  0  0  0  0  0  0  0  0  0
    2.5482   -0.7080    0.0000 H   0  0  0  0  0  0  0  0  0  0  0  0
    1.8220    2.0023    0.0000 H   0  0  0  0  0  0  0  0  0  0  0  0
    0.9834   -1.1273    0.0000 H   0  0  0  0  0  0  0  0  0  0  0  0
    0.2572    1.5830    0.0000 H   0  0  0  0  0  0  0  0  0  0  0  0
   -0.1621    0.0182    0.0000 H   0  0  0  0  0  0  0  0  0  0  0  0
  1  9  1  0  0  0  0
  1 11  1  0  0  0  0
 10  2  1  6  0  0  0
  2 33  1  0  0  0  0
  3 27  2  0  0  0  0
  4 32  2  0  0  0  0
  5  9  1  0  0  0  0
  5 14  1  0  0  0  0
  5 18  1  0  0  0  0
  6 11  1  0  0  0  0
  6 15  1  0  0  0  0
  6 20  1  0  0  0  0
 12  7  1  6  0  0  0
  7 30  1  0  0  0  0
  7 32  1  0  0  0  0
  8 25  1  0  0  0  0
  8 27  1  0  0  0  0
  8 61  1  0  0  0  0
  9 10  1  0  0  0  0
  9 19  1  1  0  0  0
 10 12  1  0  0  0  0
 10 44  1  0  0  0  0
 11 13  1  0  0  0  0
 11 45  1  6  0  0  0
 12 13  1  0  0  0  0
 12 46  1  0  0  0  0
 13 47  1  0  0  0  0
 13 48  1  0  0  0  0
 14 15  2  0  0  0  0
 14 16  1  0  0  0  0
 15 17  1  0  0  0  0
 16 21  1  0  0  0  0
 16 22  2  0  0  0  0
 17 23  2  0  0  0  0
 17 24  1  0  0  0  0
 18 21  1  0  0  0  0
 18 26  2  0  0  0  0
 19 49  1  0  0  0  0
 19 50  1  0  0  0  0
 19 51  1  0  0  0  0
 20 24  1  0  0  0  0
 20 28  2  0  0  0  0
 21 29  2  0  0  0  0
 22 23  1  0  0  0  0
 22 25  1  0  0  0  0
 23 27  1  0  0  0  0
 24 31  2  0  0  0  0
 25 52  1  0  0  0  0
 25 53  1  0  0  0  0
 26 34  1  0  0  0  0
 26 54  1  0  0  0  0
 28 36  1  0  0  0  0
 28 55  1  0  0  0  0
 29 35  1  0  0  0  0
 29 56  1  0  0  0  0
 30 57  1  0  0  0  0
 30 58  1  0  0  0  0
 30 59  1  0  0  0  0
 31 37  1  0  0  0  0
 31 60  1  0  0  0  0
 32 38  1  0  0  0  0
 33 62  1  0  0  0  0
 33 63  1  0  0  0  0
 33 64  1  0  0  0  0
 34 35  2  0  0  0  0
 34 65  1  0  0  0  0
 35 66  1  0  0  0  0
 36 37  2  0  0  0  0
 36 67  1  0  0  0  0
 37 68  1  0  0  0  0
 38 39  2  0  0  0  0
 38 40  1  0  0  0  0
 39 41  1  0  0  0  0
 39 69  1  0  0  0  0
 40 42  2  0  0  0  0
 40 70  1  0  0  0  0
 41 43  2  0  0  0  0
 41 71  1  0  0  0  0
 42 43  1  0  0  0  0
 42 72  1  0  0  0  0
 43 73  1  0  0  0  0
M  END
> <PUBCHEM_COMPOUND_CID>
9829523

> <PUBCHEM_COMPOUND_CANONICALIZED>
1

> <PUBCHEM_CACTVS_COMPLEXITY>
1140

> <PUBCHEM_CACTVS_HBOND_ACCEPTOR>
4

> <PUBCHEM_CACTVS_HBOND_DONOR>
1

> <PUBCHEM_CACTVS_ROTATABLE_BOND>
3

> <PUBCHEM_CACTVS_SUBSKEYS>
AAADceB/uAAAAAAAAAAAAAAAAAAAAWLFgAA0YMGCBYAAAFix/gAAHgAQAAAADDzhngYywPPMFACoAyVyVACCgCQlEiAI2KE4dNgLYPLA1ZGfIQhmhgDayYf82cOeyAACQAASACCQAASAACQAQAAAAAAAAA==

> <PUBCHEM_IUPAC_INCHI>
InChI=1S/C35H30N4O4/c1-35-32(42-3)25(37(2)34(41)19-11-5-4-6-12-19)17-26(43-35)38-23-15-9-7-13-20(23)28-29-22(18-36-33(29)40)27-21-14-8-10-16-24(21)39(35)31(27)30(28)38/h4-16,25-26,32H,17-18H2,1-3H3,(H,36,40)/t25-,26-,32-,35+/m1/s1

> <PUBCHEM_IUPAC_INCHIKEY>
BMGQWWVMWDBQGC-IIFHNQTCSA-N

> <PUBCHEM_XLOGP3_AA>
4.8

> <PUBCHEM_EXACT_MASS>
570.227

> <PUBCHEM_MOLECULAR_FORMULA>
C35H30N4O4

> <PUBCHEM_MOLECULAR_WEIGHT>
570.649

> <PUBCHEM_OPENEYE_CAN_SMILES>
CC12C(C(CC(O1)N3C4=CC=CC=C4C5=C6C(=C7C8=CC=CC=C8N2C7=C53)CNC6=O)N(C)C(=O)C9=CC=CC=C9)OC

> <PUBCHEM_OPENEYE_ISO_SMILES>
C[C@@]12[C@@H]([C@@H](C[C@@H](O1)N3C4=CC=CC=C4C5=C6C(=C7C8=CC=CC=C8N2C7=C53)CNC6=O)N(C)C(=O)C9=CC=CC=C9)OC

> <PUBCHEM_CACTVS_TPSA>
77.7

> <PUBCHEM_MONOISOTOPIC_WEIGHT>
570.227

> <PUBCHEM_TOTAL_CHARGE>
0

> <PUBCHEM_HEAVY_ATOM_COUNT>
43

> <PUBCHEM_ATOM_DEF_STEREO_COUNT>
4

> <PUBCHEM_ATOM_UDEF_STEREO_COUNT>
0

> <PUBCHEM_BOND_DEF_STEREO_COUNT>
0

> <PUBCHEM_BOND_UDEF_STEREO_COUNT>
0

> <PUBCHEM_ISOTOPIC_ATOM_COUNT>
0

> <PUBCHEM_COMPONENT_COUNT>
1

> <PUBCHEM_CACTVS_TAUTO_COUNT>
2

> <PUBCHEM_COORDINATE_TYPE>
1
5
255

> <PUBCHEM_BONDANNOTATIONS>
11  45  6
14  15  8
14  16  8
15  17  8
16  21  8
16  22  8
17  23  8
17  24  8
18  21  8
18  26  8
10  2  6
20  24  8
20  28  8
21  29  8
22  23  8
24  31  8
26  34  8
28  36  8
29  35  8
31  37  8
34  35  8
36  37  8
38  39  8
38  40  8
39  41  8
40  42  8
41  43  8
42  43  8
5  14  8
5  18  8
6  15  8
6  20  8
12  7  6
9  19  5

$$$$
5287844
  -OEChem-11021605012D

 32 35  0     0  0  0  0  0  0999 V2000
    2.0000   -2.8085    0.0000 Br  0  0  0  0  0  0  0  0  0  0  0  0
    7.1279   -1.8085    0.0000 O   0  0  0  0  0  0  0  0  0  0  0  0
    3.7714    1.6175    0.0000 O   0  0  0  0  0  0  0  0  0  0  0  0
    5.5443   -2.6132    0.0000 N   0  0  0  0  0  0  0  0  0  0  0  0
    6.8012    0.2515    0.0000 N   0  0  0  0  0  0  0  0  0  0  0  0
    4.2714    0.7515    0.0000 N   0  0  0  0  0  0  0  0  0  0  0  0
    5.5443   -1.0038    0.0000 C   0  0  0  0  0  0  0  0  0  0  0  0
    4.5981   -1.3085    0.0000 C   0  0  0  0  0  0  0  0  0  0  0  0
    5.8550   -0.0533    0.0000 C   0  0  0  0  0  0  0  0  0  0  0  0
    4.5981   -2.3085    0.0000 C   0  0  0  0  0  0  0  0  0  0  0  0
    5.2714    0.7515    0.0000 C   0  0  0  0  0  0  0  0  0  0  0  0
    5.8550    1.5562    0.0000 C   0  0  0  0  0  0  0  0  0  0  0  0
    6.1279   -1.8085    0.0000 C   0  0  0  0  0  0  0  0  0  0  0  0
    6.8055    1.2456    0.0000 C   0  0  0  0  0  0  0  0  0  0  0  0
    3.7320   -0.8085    0.0000 C   0  0  0  0  0  0  0  0  0  0  0  0
    3.7320   -2.8085    0.0000 C   0  0  0  0  0  0  0  0  0  0  0  0
    5.6487    2.5347    0.0000 C   0  0  0  0  0  0  0  0  0  0  0  0
    7.5498    1.9134    0.0000 C   0  0  0  0  0  0  0  0  0  0  0  0
    2.8660   -1.3085    0.0000 C   0  0  0  0  0  0  0  0  0  0  0  0
    2.8660   -2.3085    0.0000 C   0  0  0  0  0  0  0  0  0  0  0  0
    6.3930    3.2026    0.0000 C   0  0  0  0  0  0  0  0  0  0  0  0
    7.3436    2.8919    0.0000 C   0  0  0  0  0  0  0  0  0  0  0  0
    5.7369   -3.2026    0.0000 H   0  0  0  0  0  0  0  0  0  0  0  0
    3.7320   -0.1885    0.0000 H   0  0  0  0  0  0  0  0  0  0  0  0
    3.7320   -3.4285    0.0000 H   0  0  0  0  0  0  0  0  0  0  0  0
    5.0594    2.7273    0.0000 H   0  0  0  0  0  0  0  0  0  0  0  0
    8.1391    1.7208    0.0000 H   0  0  0  0  0  0  0  0  0  0  0  0
    2.3291   -0.9985    0.0000 H   0  0  0  0  0  0  0  0  0  0  0  0
    3.9614    0.2145    0.0000 H   0  0  0  0  0  0  0  0  0  0  0  0
    6.2652    3.8092    0.0000 H   0  0  0  0  0  0  0  0  0  0  0  0
    7.8050    3.3060    0.0000 H   0  0  0  0  0  0  0  0  0  0  0  0
    3.1514    1.6175    0.0000 H   0  0  0  0  0  0  0  0  0  0  0  0
  1 20  1  0  0  0  0
  2 13  2  0  0  0  0
  3  6  1  0  0  0  0
  3 32  1  0  0  0  0
  4 10  1  0  0  0  0
  4 13  1  0  0  0  0
  4 23  1  0  0  0  0
  5  9  1  0  0  0  0
  5 14  2  0  0  0  0
  6 11  1  0  0  0  0
  6 29  1  0  0  0  0
  7  8  1  0  0  0  0
  7  9  2  0  0  0  0
  7 13  1  0  0  0  0
  8 10  2  0  0  0  0
  8 15  1  0  0  0  0
  9 11  1  0  0  0  0
 10 16  1  0  0  0  0
 11 12  2  0  0  0  0
 12 14  1  0  0  0  0
 12 17  1  0  0  0  0
 14 18  1  0  0  0  0
 15 19  2  0  0  0  0
 15 24  1  0  0  0  0
 16 20  2  0  0  0  0
 16 25  1  0  0  0  0
 17 21  2  0  0  0  0
 17 26  1  0  0  0  0
 18 22  2  0  0  0  0
 18 27  1  0  0  0  0
 19 20  1  0  0  0  0
 19 28  1  0  0  0  0
 21 22  1  0  0  0  0
 21 30  1  0  0  0  0
 22 31  1  0  0  0  0
M  END
> <PUBCHEM_COMPOUND_CID>
5287844

> <PUBCHEM_COMPOUND_CANONICALIZED>
1

> <PUBCHEM_CACTVS_COMPLEXITY>
702

> <PUBCHEM_CACTVS_HBOND_ACCEPTOR>
4

> <PUBCHEM_CACTVS_HBOND_DONOR>
3

> <PUBCHEM_CACTVS_ROTATABLE_BOND>
1

> <PUBCHEM_CACTVS_SUBSKEYS>
AAADccB7MAAAEAAAAAAAAAAAAAAAAWIAAAAwQAAAAAAAAFgBAAAAHgBUCAABrAiBmAAwwILQAACoAyVyVACCAAAhAgQoiAEwZPgIYDLAlZGEIAhglADIy1cciICOAgAAAAECAAAEAAAAAgQAAAAAAAAAAA==

> <PUBCHEM_IUPAC_OPENEYE_NAME>
(3Z)-6-bromo-3-[3-(hydroxyamino)indol-2-ylidene]indolin-2-one

> <PUBCHEM_IUPAC_CAS_NAME>
(3Z)-6-bromo-3-[3-(hydroxyamino)-2-indolylidene]-1H-indol-2-one

> <PUBCHEM_IUPAC_NAME>
(3Z)-6-bromo-3-[3-(hydroxyamino)indol-2-ylidene]-1H-indol-2-one

> <PUBCHEM_IUPAC_SYSTEMATIC_NAME>
(3Z)-6-bromanyl-3-[3-(oxidanylamino)indol-2-ylidene]-1H-indol-2-one

> <PUBCHEM_IUPAC_TRADITIONAL_NAME>
(3Z)-6-bromo-3-[3-(hydroxyamino)indol-2-ylidene]oxindole

> <PUBCHEM_IUPAC_INCHI>
InChI=1S/C16H10BrN3O2/c17-8-5-6-9-12(7-8)19-16(21)13(9)15-14(20-22)10-3-1-2-4-11(10)18-15/h1-7,20,22H,(H,19,21)/b15-13-

> <PUBCHEM_IUPAC_INCHIKEY>
WNWSUJQVZJJGLF-SQFISAMPSA-N

> <PUBCHEM_XLOGP3_AA>
2

> <PUBCHEM_EXACT_MASS>
354.996

> <PUBCHEM_MOLECULAR_FORMULA>
C16H10BrN3O2

> <PUBCHEM_MOLECULAR_WEIGHT>
356.179

> <PUBCHEM_OPENEYE_CAN_SMILES>
C1=CC2=C(C(=C3C4=C(C=C(C=C4)Br)NC3=O)N=C2C=C1)NO

> <PUBCHEM_OPENEYE_ISO_SMILES>
C1=CC2=C(/C(=C/3\C4=C(C=C(C=C4)Br)NC3=O)/N=C2C=C1)NO

> <PUBCHEM_CACTVS_TPSA>
73.7

> <PUBCHEM_MONOISOTOPIC_WEIGHT>
354.996

> <PUBCHEM_TOTAL_CHARGE>
0

> <PUBCHEM_HEAVY_ATOM_COUNT>
22

> <PUBCHEM_ATOM_DEF_STEREO_COUNT>
0

> <PUBCHEM_ATOM_UDEF_STEREO_COUNT>
0

> <PUBCHEM_BOND_DEF_STEREO_COUNT>
1

> <PUBCHEM_BOND_UDEF_STEREO_COUNT>
0

> <PUBCHEM_ISOTOPIC_ATOM_COUNT>
0

> <PUBCHEM_COMPONENT_COUNT>
1

> <PUBCHEM_CACTVS_TAUTO_COUNT>
119

> <PUBCHEM_COORDINATE_TYPE>
1
5
255

> <PUBCHEM_BONDANNOTATIONS>
10  16  8
12  14  8
12  17  8
14  18  8
15  19  8
16  20  8
17  21  8
18  22  8
19  20  8
21  22  8
8  10  8
8  15  8

$$$$
3795
  -OEChem-11021605012D

 37 39  0     0  0  0  0  0  0999 V2000
    8.0437   -3.5272    0.0000 Br  0  0  0  0  0  0  0  0  0  0  0  0
    2.8660    0.5272    0.0000 O   0  0  0  0  0  0  0  0  0  0  0  0
    2.8660    2.5272    0.0000 O   0  0  0  0  0  0  0  0  0  0  0  0
    9.7872   -2.5473    0.0000 O   0  0  0  0  0  0  0  0  0  0  0  0
    6.3465   -0.5074    0.0000 N   0  0  0  0  0  0  0  0  0  0  0  0
    6.3580    2.5619    0.0000 N   0  0  0  0  0  0  0  0  0  0  0  0
    7.2641    1.0064    0.0000 N   0  0  0  0  0  0  0  0  0  0  0  0
    5.4641    1.0272    0.0000 C   0  0  0  0  0  0  0  0  0  0  0  0
    5.4641    2.0272    0.0000 C   0  0  0  0  0  0  0  0  0  0  0  0
    6.3580    0.4926    0.0000 C   0  0  0  0  0  0  0  0  0  0  0  0
    4.5981    0.5272    0.0000 C   0  0  0  0  0  0  0  0  0  0  0  0
    3.7320    1.0272    0.0000 C   0  0  0  0  0  0  0  0  0  0  0  0
    4.5981    2.5272    0.0000 C   0  0  0  0  0  0  0  0  0  0  0  0
    3.7320    2.0272    0.0000 C   0  0  0  0  0  0  0  0  0  0  0  0
    7.2067   -1.0174    0.0000 C   0  0  0  0  0  0  0  0  0  0  0  0
    7.1951   -2.0173    0.0000 C   0  0  0  0  0  0  0  0  0  0  0  0
    8.0784   -0.5274    0.0000 C   0  0  0  0  0  0  0  0  0  0  0  0
    7.2641    2.0480    0.0000 C   0  0  0  0  0  0  0  0  0  0  0  0
    8.0553   -2.5273    0.0000 C   0  0  0  0  0  0  0  0  0  0  0  0
    8.9386   -1.0374    0.0000 C   0  0  0  0  0  0  0  0  0  0  0  0
    8.9270   -2.0373    0.0000 C   0  0  0  0  0  0  0  0  0  0  0  0
    2.0000    1.0272    0.0000 C   0  0  0  0  0  0  0  0  0  0  0  0
    2.8660    3.5272    0.0000 C   0  0  0  0  0  0  0  0  0  0  0  0
    4.5981   -0.0928    0.0000 H   0  0  0  0  0  0  0  0  0  0  0  0
    4.5981    3.1472    0.0000 H   0  0  0  0  0  0  0  0  0  0  0  0
    5.8060   -0.8112    0.0000 H   0  0  0  0  0  0  0  0  0  0  0  0
    6.6546   -2.3211    0.0000 H   0  0  0  0  0  0  0  0  0  0  0  0
    8.0856    0.0925    0.0000 H   0  0  0  0  0  0  0  0  0  0  0  0
    7.7998    2.3601    0.0000 H   0  0  0  0  0  0  0  0  0  0  0  0
    9.4791   -0.7336    0.0000 H   0  0  0  0  0  0  0  0  0  0  0  0
    2.3100    1.5642    0.0000 H   0  0  0  0  0  0  0  0  0  0  0  0
    1.4631    1.3372    0.0000 H   0  0  0  0  0  0  0  0  0  0  0  0
    1.6900    0.4903    0.0000 H   0  0  0  0  0  0  0  0  0  0  0  0
    3.4860    3.5272    0.0000 H   0  0  0  0  0  0  0  0  0  0  0  0
    2.8660    4.1472    0.0000 H   0  0  0  0  0  0  0  0  0  0  0  0
    2.2460    3.5272    0.0000 H   0  0  0  0  0  0  0  0  0  0  0  0
   10.3277   -2.2435    0.0000 H   0  0  0  0  0  0  0  0  0  0  0  0
  1 19  1  0  0  0  0
  2 12  1  0  0  0  0
  2 22  1  0  0  0  0
  3 14  1  0  0  0  0
  3 23  1  0  0  0  0
  4 21  1  0  0  0  0
  4 37  1  0  0  0  0
  5 10  1  0  0  0  0
  5 15  1  0  0  0  0
  5 26  1  0  0  0  0
  6  9  1  0  0  0  0
  6 18  2  0  0  0  0
  7 10  2  0  0  0  0
  7 18  1  0  0  0  0
  8  9  1  0  0  0  0
  8 10  1  0  0  0  0
  8 11  2  0  0  0  0
  9 13  2  0  0  0  0
 11 12  1  0  0  0  0
 11 24  1  0  0  0  0
 12 14  2  0  0  0  0
 13 14  1  0  0  0  0
 13 25  1  0  0  0  0
 15 16  2  0  0  0  0
 15 17  1  0  0  0  0
 16 19  1  0  0  0  0
 16 27  1  0  0  0  0
 17 20  2  0  0  0  0
 17 28  1  0  0  0  0
 18 29  1  0  0  0  0
 19 21  2  0  0  0  0
 20 21  1  0  0  0  0
 20 30  1  0  0  0  0
 22 31  1  0  0  0  0
 22 32  1  0  0  0  0
 22 33  1  0  0  0  0
 23 34  1  0  0  0  0
 23 35  1  0  0  0  0
 23 36  1  0  0  0  0
M  END
> <PUBCHEM_COMPOUND_CID>
3795

> <PUBCHEM_COMPOUND_CANONICALIZED>
1

> <PUBCHEM_CACTVS_COMPLEXITY>
390

> <PUBCHEM_CACTVS_HBOND_ACCEPTOR>
6

> <PUBCHEM_CACTVS_HBOND_DONOR>
2

> <PUBCHEM_CACTVS_ROTATABLE_BOND>
4

> <PUBCHEM_CACTVS_SUBSKEYS>
AAADccB7MAAAEAAAAAAAAAAAAAAAAAAAAAA8YIAAAAAAAACx9AAAHgBQCAABrAyBngY39vbIFgCgAyZjZACCiCkxIqQJ2CA+7LiNLuLG+duEdCpu0BvK+jew0BMOIEABAgECRABAgAIEAgSIAAAAAAAAAA==

> <PUBCHEM_IUPAC_OPENEYE_NAME>
2-bromo-4-[(6,7-dimethoxyquinazolin-4-yl)amino]phenol

> <PUBCHEM_IUPAC_CAS_NAME>
2-bromo-4-[(6,7-dimethoxy-4-quinazolinyl)amino]phenol

> <PUBCHEM_IUPAC_NAME>
2-bromo-4-[(6,7-dimethoxyquinazolin-4-yl)amino]phenol

> <PUBCHEM_IUPAC_SYSTEMATIC_NAME>
2-bromanyl-4-[(6,7-dimethoxyquinazolin-4-yl)amino]phenol

> <PUBCHEM_IUPAC_TRADITIONAL_NAME>
2-bromo-4-[(6,7-dimethoxyquinazolin-4-yl)amino]phenol

> <PUBCHEM_IUPAC_INCHI>
InChI=1S/C16H14BrN3O3/c1-22-14-6-10-12(7-15(14)23-2)18-8-19-16(10)20-9-3-4-13(21)11(17)5-9/h3-8,21H,1-2H3,(H,18,19,20)

> <PUBCHEM_IUPAC_INCHIKEY>
CBIAKDAYHRWZCU-UHFFFAOYSA-N

> <PUBCHEM_XLOGP3_AA>
3.7

> <PUBCHEM_EXACT_MASS>
375.022

> <PUBCHEM_MOLECULAR_FORMULA>
C16H14BrN3O3

> <PUBCHEM_MOLECULAR_WEIGHT>
376.21

> <PUBCHEM_OPENEYE_CAN_SMILES>
COC1=C(C=C2C(=C1)C(=NC=N2)NC3=CC(=C(C=C3)O)Br)OC

> <PUBCHEM_OPENEYE_ISO_SMILES>
COC1=C(C=C2C(=C1)C(=NC=N2)NC3=CC(=C(C=C3)O)Br)OC

> <PUBCHEM_CACTVS_TPSA>
76.5

> <PUBCHEM_MONOISOTOPIC_WEIGHT>
375.022

> <PUBCHEM_TOTAL_CHARGE>
0

> <PUBCHEM_HEAVY_ATOM_COUNT>
23

> <PUBCHEM_ATOM_DEF_STEREO_COUNT>
0

> <PUBCHEM_ATOM_UDEF_STEREO_COUNT>
0

> <PUBCHEM_BOND_DEF_STEREO_COUNT>
0

> <PUBCHEM_BOND_UDEF_STEREO_COUNT>
0

> <PUBCHEM_ISOTOPIC_ATOM_COUNT>
0

> <PUBCHEM_COMPONENT_COUNT>
1

> <PUBCHEM_CACTVS_TAUTO_COUNT>
13

> <PUBCHEM_COORDINATE_TYPE>
1
5
255

> <PUBCHEM_BONDANNOTATIONS>
11  12  8
12  14  8
13  14  8
15  16  8
15  17  8
16  19  8
17  20  8
19  21  8
20  21  8
6  18  8
6  9  8
7  10  8
7  18  8
8  10  8
8  11  8
8  9  8
9  13  8

$$$$
9549301
  -OEChem-11021605012D

 54 57  0     0  0  0  0  0  0999 V2000
   14.1004    0.6388    0.0000 Cl  0  0  0  0  0  0  0  0  0  0  0  0
   10.8077    1.7150    0.0000 Cl  0  0  0  0  0  0  0  0  0  0  0  0
   10.3312   -2.5784    0.0000 O   0  0  0  0  0  0  0  0  0  0  0  0
    5.1350   -1.5784    0.0000 O   0  0  0  0  0  0  0  0  0  0  0  0
    2.5369   -1.0784    0.0000 O   0  0  0  0  0  0  0  0  0  0  0  0
   12.1434    0.2264    0.0000 N   0  0  0  0  0  0  0  0  0  0  0  0
   12.7270   -0.5784    0.0000 N   0  0  0  0  0  0  0  0  0  0  0  0
   10.3312    0.4216    0.0000 N   0  0  0  0  0  0  0  0  0  0  0  0
    9.4651   -1.0784    0.0000 N   0  0  0  0  0  0  0  0  0  0  0  0
   12.1434   -1.3831    0.0000 C   0  0  0  0  0  0  0  0  0  0  0  0
   12.4541   -2.3336    0.0000 C   0  0  0  0  0  0  0  0  0  0  0  0
   11.1972   -1.0784    0.0000 C   0  0  0  0  0  0  0  0  0  0  0  0
   11.1972   -0.0784    0.0000 C   0  0  0  0  0  0  0  0  0  0  0  0
   13.4326   -2.5398    0.0000 C   0  0  0  0  0  0  0  0  0  0  0  0
   11.7862   -3.0779    0.0000 C   0  0  0  0  0  0  0  0  0  0  0  0
   12.4541    1.1769    0.0000 C   0  0  0  0  0  0  0  0  0  0  0  0
   10.3312   -1.5784    0.0000 C   0  0  0  0  0  0  0  0  0  0  0  0
    9.4651   -0.0784    0.0000 C   0  0  0  0  0  0  0  0  0  0  0  0
    8.5991    0.4216    0.0000 C   0  0  0  0  0  0  0  0  0  0  0  0
   13.4326    1.3831    0.0000 C   0  0  0  0  0  0  0  0  0  0  0  0
   11.7862    1.9212    0.0000 C   0  0  0  0  0  0  0  0  0  0  0  0
    7.7331   -0.0784    0.0000 C   0  0  0  0  0  0  0  0  0  0  0  0
   13.7432    2.3336    0.0000 C   0  0  0  0  0  0  0  0  0  0  0  0
   12.0969    2.8717    0.0000 C   0  0  0  0  0  0  0  0  0  0  0  0
    6.8671    0.4216    0.0000 C   0  0  0  0  0  0  0  0  0  0  0  0
    7.7331   -1.0784    0.0000 C   0  0  0  0  0  0  0  0  0  0  0  0
   13.0754    3.0779    0.0000 C   0  0  0  0  0  0  0  0  0  0  0  0
    6.0010   -0.0784    0.0000 C   0  0  0  0  0  0  0  0  0  0  0  0
    6.8671   -1.5784    0.0000 C   0  0  0  0  0  0  0  0  0  0  0  0
    6.0010   -1.0784    0.0000 C   0  0  0  0  0  0  0  0  0  0  0  0
    4.2690   -1.0784    0.0000 C   0  0  0  0  0  0  0  0  0  0  0  0
    3.4030   -1.5784    0.0000 C   0  0  0  0  0  0  0  0  0  0  0  0
   12.6467   -2.9229    0.0000 H   0  0  0  0  0  0  0  0  0  0  0  0
   13.3470   -0.5784    0.0000 H   0  0  0  0  0  0  0  0  0  0  0  0
   13.3047   -3.1465    0.0000 H   0  0  0  0  0  0  0  0  0  0  0  0
   11.3248   -2.6639    0.0000 H   0  0  0  0  0  0  0  0  0  0  0  0
   11.3722   -3.5394    0.0000 H   0  0  0  0  0  0  0  0  0  0  0  0
   12.2477   -3.4920    0.0000 H   0  0  0  0  0  0  0  0  0  0  0  0
   14.0393   -2.6677    0.0000 H   0  0  0  0  0  0  0  0  0  0  0  0
   13.5604   -1.9332    0.0000 H   0  0  0  0  0  0  0  0  0  0  0  0
    8.9976    0.8966    0.0000 H   0  0  0  0  0  0  0  0  0  0  0  0
    8.2006    0.8966    0.0000 H   0  0  0  0  0  0  0  0  0  0  0  0
   14.3499    2.4615    0.0000 H   0  0  0  0  0  0  0  0  0  0  0  0
   11.6828    3.3332    0.0000 H   0  0  0  0  0  0  0  0  0  0  0  0
    6.8671    1.0416    0.0000 H   0  0  0  0  0  0  0  0  0  0  0  0
    8.2700   -1.3884    0.0000 H   0  0  0  0  0  0  0  0  0  0  0  0
   13.2680    3.6672    0.0000 H   0  0  0  0  0  0  0  0  0  0  0  0
    5.4641    0.2316    0.0000 H   0  0  0  0  0  0  0  0  0  0  0  0
    6.8671   -2.1984    0.0000 H   0  0  0  0  0  0  0  0  0  0  0  0
    4.6675   -0.6034    0.0000 H   0  0  0  0  0  0  0  0  0  0  0  0
    3.8705   -0.6034    0.0000 H   0  0  0  0  0  0  0  0  0  0  0  0
    3.0044   -2.0533    0.0000 H   0  0  0  0  0  0  0  0  0  0  0  0
    3.8015   -2.0533    0.0000 H   0  0  0  0  0  0  0  0  0  0  0  0
    2.0000   -1.3884    0.0000 H   0  0  0  0  0  0  0  0  0  0  0  0
  1 20  1  0  0  0  0
  2 21  1  0  0  0  0
  3 17  2  0  0  0  0
  4 30  1  0  0  0  0
  4 31  1  0  0  0  0
  5 32  1  0  0  0  0
  5 54  1  0  0  0  0
  6  7  1  0  0  0  0
  6 13  1  0  0  0  0
  6 16  1  0  0  0  0
  7 10  1  0  0  0  0
  7 34  1  0  0  0  0
  8 13  2  0  0  0  0
  8 18  1  0  0  0  0
  9 17  1  0  0  0  0
  9 18  2  0  0  0  0
 10 11  1  0  0  0  0
 10 12  2  0  0  0  0
 11 14  1  0  0  0  0
 11 15  1  0  0  0  0
 11 33  1  0  0  0  0
 12 13  1  0  0  0  0
 12 17  1  0  0  0  0
 14 35  1  0  0  0  0
 14 39  1  0  0  0  0
 14 40  1  0  0  0  0
 15 36  1  0  0  0  0
 15 37  1  0  0  0  0
 15 38  1  0  0  0  0
 16 20  2  0  0  0  0
 16 21  1  0  0  0  0
 18 19  1  0  0  0  0
 19 22  1  0  0  0  0
 19 41  1  0  0  0  0
 19 42  1  0  0  0  0
 20 23  1  0  0  0  0
 21 24  2  0  0  0  0
 22 25  2  0  0  0  0
 22 26  1  0  0  0  0
 23 27  2  0  0  0  0
 23 43  1  0  0  0  0
 24 27  1  0  0  0  0
 24 44  1  0  0  0  0
 25 28  1  0  0  0  0
 25 45  1  0  0  0  0
 26 29  2  0  0  0  0
 26 46  1  0  0  0  0
 27 47  1  0  0  0  0
 28 30  2  0  0  0  0
 28 48  1  0  0  0  0
 29 30  1  0  0  0  0
 29 49  1  0  0  0  0
 31 32  1  0  0  0  0
 31 50  1  0  0  0  0
 31 51  1  0  0  0  0
 32 52  1  0  0  0  0
 32 53  1  0  0  0  0
M  END
> <PUBCHEM_COMPOUND_CID>
9549301

> <PUBCHEM_COMPOUND_CANONICALIZED>
1

> <PUBCHEM_CACTVS_COMPLEXITY>
795

> <PUBCHEM_CACTVS_HBOND_ACCEPTOR>
4

> <PUBCHEM_CACTVS_HBOND_DONOR>
2

> <PUBCHEM_CACTVS_ROTATABLE_BOND>
7

> <PUBCHEM_CACTVS_SUBSKEYS>
AAADceB7sAAGAAAAAAAAAAAAAAAAAQAAAAAwYIAAAAAAAEABQAAAHgIYCAAADQ6hmCIzxoJiBgCoAidydACCDAEhJQAZqAE2TtgNNirF+5vGOCjk0BHL6UeQwIAOIAAAAACAABBAAAAAAQAAIAAAAAAAAA==

> <PUBCHEM_IUPAC_OPENEYE_NAME>
1-(2,6-dichlorophenyl)-6-[[4-(2-hydroxyethoxy)phenyl]methyl]-3-isopropyl-2H-pyrazolo[3,4-d]pyrimidin-4-one

> <PUBCHEM_IUPAC_CAS_NAME>
1-(2,6-dichlorophenyl)-6-[[4-(2-hydroxyethoxy)phenyl]methyl]-3-propan-2-yl-2H-pyrazolo[3,4-d]pyrimidin-4-one

> <PUBCHEM_IUPAC_NAME>
1-(2,6-dichlorophenyl)-6-[[4-(2-hydroxyethoxy)phenyl]methyl]-3-propan-2-yl-2H-pyrazolo[3,4-d]pyrimidin-4-one

> <PUBCHEM_IUPAC_SYSTEMATIC_NAME>
1-[2,6-bis(chloranyl)phenyl]-6-[[4-(2-hydroxyethyloxy)phenyl]methyl]-3-propan-2-yl-2H-pyrazolo[3,4-d]pyrimidin-4-one

> <PUBCHEM_IUPAC_TRADITIONAL_NAME>
1-(2,6-dichlorophenyl)-6-[4-(2-hydroxyethoxy)benzyl]-3-isopropyl-2H-pyrazolo[3,4-d]pyrimidin-4-one

> <PUBCHEM_IUPAC_INCHI>
InChI=1S/C23H22Cl2N4O3/c1-13(2)20-19-22(29(28-20)21-16(24)4-3-5-17(21)25)26-18(27-23(19)31)12-14-6-8-15(9-7-14)32-11-10-30/h3-9,13,28,30H,10-12H2,1-2H3

> <PUBCHEM_IUPAC_INCHIKEY>
VQNCIRRXQQTXEL-UHFFFAOYSA-N

> <PUBCHEM_XLOGP3_AA>
4.4

> <PUBCHEM_EXACT_MASS>
472.107

> <PUBCHEM_MOLECULAR_FORMULA>
C23H22Cl2N4O3

> <PUBCHEM_MOLECULAR_WEIGHT>
473.354

> <PUBCHEM_OPENEYE_CAN_SMILES>
CC(C)C1=C2C(=NC(=NC2=O)CC3=CC=C(C=C3)OCCO)N(N1)C4=C(C=CC=C4Cl)Cl

> <PUBCHEM_OPENEYE_ISO_SMILES>
CC(C)C1=C2C(=NC(=NC2=O)CC3=CC=C(C=C3)OCCO)N(N1)C4=C(C=CC=C4Cl)Cl

> <PUBCHEM_CACTVS_TPSA>
86.5

> <PUBCHEM_MONOISOTOPIC_WEIGHT>
472.107

> <PUBCHEM_TOTAL_CHARGE>
0

> <PUBCHEM_HEAVY_ATOM_COUNT>
32

> <PUBCHEM_ATOM_DEF_STEREO_COUNT>
0

> <PUBCHEM_ATOM_UDEF_STEREO_COUNT>
0

> <PUBCHEM_BOND_DEF_STEREO_COUNT>
0

> <PUBCHEM_BOND_UDEF_STEREO_COUNT>
0

> <PUBCHEM_ISOTOPIC_ATOM_COUNT>
0

> <PUBCHEM_COMPONENT_COUNT>
1

> <PUBCHEM_CACTVS_TAUTO_COUNT>
16

> <PUBCHEM_COORDINATE_TYPE>
1
5
255

> <PUBCHEM_BONDANNOTATIONS>
10  12  8
12  17  8
16  20  8
16  21  8
20  23  8
21  24  8
22  25  8
22  26  8
23  27  8
24  27  8
25  28  8
26  29  8
28  30  8
29  30  8
6  13  8
6  7  8
7  10  8
8  13  8
8  18  8
9  17  8
9  18  8

$$$$
11983295
  -OEChem-11021605012D

 50 53  0     0  0  0  0  0  0999 V2000
    5.2531    4.4076    0.0000 O   0  0  0  0  0  0  0  0  0  0  0  0
    6.2619   -2.6756    0.0000 O   0  0  0  0  0  0  0  0  0  0  0  0
   10.7619   -3.5416    0.0000 O   0  5  0  0  0  0  0  0  0  0  0  0
    9.2619   -4.4076    0.0000 O   0  0  0  0  0  0  0  0  0  0  0  0
    4.6318    2.5066    0.0000 N   0  0  0  0  0  0  0  0  0  0  0  0
    4.6783   -0.1388    0.0000 N   0  0  0  0  0  0  0  0  0  0  0  0
    4.6783   -1.7482    0.0000 N   0  0  0  0  0  0  0  0  0  0  0  0
    6.2619   -0.9435    0.0000 N   0  0  0  0  0  0  0  0  0  0  0  0
    9.7619   -3.5416    0.0000 N   0  3  0  0  0  0  0  0  0  0  0  0
    4.3211    1.5560    0.0000 C   0  0  0  0  0  0  0  0  0  0  0  0
    3.9639    3.2509    0.0000 C   0  0  0  0  0  0  0  0  0  0  0  0
    5.6103    2.7128    0.0000 C   0  0  0  0  0  0  0  0  0  0  0  0
    4.9889    0.8117    0.0000 C   0  0  0  0  0  0  0  0  0  0  0  0
    4.2746    4.2014    0.0000 C   0  0  0  0  0  0  0  0  0  0  0  0
    5.9209    3.6633    0.0000 C   0  0  0  0  0  0  0  0  0  0  0  0
    3.7320   -0.4435    0.0000 C   0  0  0  0  0  0  0  0  0  0  0  0
    5.2619   -0.9435    0.0000 C   0  0  0  0  0  0  0  0  0  0  0  0
    3.7320   -1.4435    0.0000 C   0  0  0  0  0  0  0  0  0  0  0  0
    2.8660    0.0565    0.0000 C   0  0  0  0  0  0  0  0  0  0  0  0
    2.8660   -1.9435    0.0000 C   0  0  0  0  0  0  0  0  0  0  0  0
    2.0000   -0.4435    0.0000 C   0  0  0  0  0  0  0  0  0  0  0  0
    2.0000   -1.4435    0.0000 C   0  0  0  0  0  0  0  0  0  0  0  0
    6.7619   -1.8095    0.0000 C   0  0  0  0  0  0  0  0  0  0  0  0
    7.7619   -1.8095    0.0000 C   0  0  0  0  0  0  0  0  0  0  0  0
    8.2619   -2.6756    0.0000 C   0  0  0  0  0  0  0  0  0  0  0  0
    8.2619   -0.9435    0.0000 C   0  0  0  0  0  0  0  0  0  0  0  0
    9.2619   -2.6756    0.0000 C   0  0  0  0  0  0  0  0  0  0  0  0
    9.2619   -0.9435    0.0000 C   0  0  0  0  0  0  0  0  0  0  0  0
    9.7619   -1.8095    0.0000 C   0  0  0  0  0  0  0  0  0  0  0  0
    3.7742    1.8481    0.0000 H   0  0  0  0  0  0  0  0  0  0  0  0
    3.9385    1.0681    0.0000 H   0  0  0  0  0  0  0  0  0  0  0  0
    5.5359    0.5197    0.0000 H   0  0  0  0  0  0  0  0  0  0  0  0
    5.3715    1.2996    0.0000 H   0  0  0  0  0  0  0  0  0  0  0  0
    5.6308    2.0931    0.0000 H   0  0  0  0  0  0  0  0  0  0  0  0
    6.2241    2.6254    0.0000 H   0  0  0  0  0  0  0  0  0  0  0  0
    3.4170    3.5429    0.0000 H   0  0  0  0  0  0  0  0  0  0  0  0
    3.5814    2.7630    0.0000 H   0  0  0  0  0  0  0  0  0  0  0  0
    6.4678    3.3713    0.0000 H   0  0  0  0  0  0  0  0  0  0  0  0
    6.3035    4.1512    0.0000 H   0  0  0  0  0  0  0  0  0  0  0  0
    4.2540    4.8210    0.0000 H   0  0  0  0  0  0  0  0  0  0  0  0
    3.6608    4.2887    0.0000 H   0  0  0  0  0  0  0  0  0  0  0  0
    2.8660    0.6765    0.0000 H   0  0  0  0  0  0  0  0  0  0  0  0
    6.5719   -0.4066    0.0000 H   0  0  0  0  0  0  0  0  0  0  0  0
    2.8660   -2.5635    0.0000 H   0  0  0  0  0  0  0  0  0  0  0  0
    1.4631   -0.1335    0.0000 H   0  0  0  0  0  0  0  0  0  0  0  0
    1.4631   -1.7535    0.0000 H   0  0  0  0  0  0  0  0  0  0  0  0
    7.9519   -3.2125    0.0000 H   0  0  0  0  0  0  0  0  0  0  0  0
    7.9519   -0.4066    0.0000 H   0  0  0  0  0  0  0  0  0  0  0  0
    9.5719   -0.4066    0.0000 H   0  0  0  0  0  0  0  0  0  0  0  0
   10.3819   -1.8095    0.0000 H   0  0  0  0  0  0  0  0  0  0  0  0
  1 14  1  0  0  0  0
  1 15  1  0  0  0  0
  2 23  2  0  0  0  0
  3  9  1  0  0  0  0
  4  9  2  0  0  0  0
  5 10  1  0  0  0  0
  5 11  1  0  0  0  0
  5 12  1  0  0  0  0
  6 13  1  0  0  0  0
  6 16  1  0  0  0  0
  6 17  1  0  0  0  0
  7 17  2  0  0  0  0
  7 18  1  0  0  0  0
  8 17  1  0  0  0  0
  8 23  1  0  0  0  0
  8 43  1  0  0  0  0
  9 27  1  0  0  0  0
 10 13  1  0  0  0  0
 10 30  1  0  0  0  0
 10 31  1  0  0  0  0
 11 14  1  0  0  0  0
 11 36  1  0  0  0  0
 11 37  1  0  0  0  0
 12 15  1  0  0  0  0
 12 34  1  0  0  0  0
 12 35  1  0  0  0  0
 13 32  1  0  0  0  0
 13 33  1  0  0  0  0
 14 40  1  0  0  0  0
 14 41  1  0  0  0  0
 15 38  1  0  0  0  0
 15 39  1  0  0  0  0
 16 18  1  0  0  0  0
 16 19  2  0  0  0  0
 18 20  2  0  0  0  0
 19 21  1  0  0  0  0
 19 42  1  0  0  0  0
 20 22  1  0  0  0  0
 20 44  1  0  0  0  0
 21 22  2  0  0  0  0
 21 45  1  0  0  0  0
 22 46  1  0  0  0  0
 23 24  1  0  0  0  0
 24 25  2  0  0  0  0
 24 26  1  0  0  0  0
 25 27  1  0  0  0  0
 25 47  1  0  0  0  0
 26 28  2  0  0  0  0
 26 48  1  0  0  0  0
 27 29  2  0  0  0  0
 28 29  1  0  0  0  0
 28 49  1  0  0  0  0
 29 50  1  0  0  0  0
M  CHG  2   3  -1   9   1
M  END
> <PUBCHEM_COMPOUND_CID>
11983295

> <PUBCHEM_COMPOUND_CANONICALIZED>
1

> <PUBCHEM_CACTVS_COMPLEXITY>
580

> <PUBCHEM_CACTVS_HBOND_ACCEPTOR>
6

> <PUBCHEM_CACTVS_HBOND_DONOR>
1

> <PUBCHEM_CACTVS_ROTATABLE_BOND>
5

> <PUBCHEM_CACTVS_SUBSKEYS>
AAADceB7uAAAAAAAAAAAAAAAAAAAAWAAAAA8YIAAAAAAAFgB9AAAHgAUAAAADAjhngYx0LfcVACpAyVydwCCgC0lEqAp2CE4dNqKaLLAnZGXIQhogQLYyacciACOAAAAQAAAACAAAACAAAAAQAAAAAAAAA==

> <PUBCHEM_IUPAC_OPENEYE_NAME>
N-[1-(2-morpholinoethyl)benzimidazol-2-yl]-3-nitro-benzamide

> <PUBCHEM_IUPAC_CAS_NAME>
N-[1-[2-(4-morpholinyl)ethyl]-2-benzimidazolyl]-3-nitrobenzamide

> <PUBCHEM_IUPAC_NAME>
N-[1-(2-morpholin-4-ylethyl)benzimidazol-2-yl]-3-nitrobenzamide

> <PUBCHEM_IUPAC_SYSTEMATIC_NAME>
N-[1-(2-morpholin-4-ylethyl)benzimidazol-2-yl]-3-nitro-benzamide

> <PUBCHEM_IUPAC_TRADITIONAL_NAME>
N-[1-(2-morpholinoethyl)benzimidazol-2-yl]-3-nitro-benzamide

> <PUBCHEM_IUPAC_INCHI>
InChI=1S/C20H21N5O4/c26-19(15-4-3-5-16(14-15)25(27)28)22-20-21-17-6-1-2-7-18(17)24(20)9-8-23-10-12-29-13-11-23/h1-7,14H,8-13H2,(H,21,22,26)

> <PUBCHEM_IUPAC_INCHIKEY>
QTCFYQHZJIIHBS-UHFFFAOYSA-N

> <PUBCHEM_XLOGP3_AA>
2

> <PUBCHEM_EXACT_MASS>
395.159

> <PUBCHEM_MOLECULAR_FORMULA>
C20H21N5O4

> <PUBCHEM_MOLECULAR_WEIGHT>
395.419

> <PUBCHEM_OPENEYE_CAN_SMILES>
C1COCCN1CCN2C3=CC=CC=C3N=C2NC(=O)C4=CC(=CC=C4)[N+](=O)[O-]

> <PUBCHEM_OPENEYE_ISO_SMILES>
C1COCCN1CCN2C3=CC=CC=C3N=C2NC(=O)C4=CC(=CC=C4)[N+](=O)[O-]

> <PUBCHEM_CACTVS_TPSA>
105

> <PUBCHEM_MONOISOTOPIC_WEIGHT>
395.159

> <PUBCHEM_TOTAL_CHARGE>
0

> <PUBCHEM_HEAVY_ATOM_COUNT>
29

> <PUBCHEM_ATOM_DEF_STEREO_COUNT>
0

> <PUBCHEM_ATOM_UDEF_STEREO_COUNT>
0

> <PUBCHEM_BOND_DEF_STEREO_COUNT>
0

> <PUBCHEM_BOND_UDEF_STEREO_COUNT>
0

> <PUBCHEM_ISOTOPIC_ATOM_COUNT>
0

> <PUBCHEM_COMPONENT_COUNT>
1

> <PUBCHEM_CACTVS_TAUTO_COUNT>
3

> <PUBCHEM_COORDINATE_TYPE>
1
5
255

> <PUBCHEM_BONDANNOTATIONS>
16  18  8
16  19  8
18  20  8
19  21  8
20  22  8
21  22  8
24  25  8
24  26  8
25  27  8
26  28  8
27  29  8
28  29  8
6  16  8
6  17  8
7  17  8
7  18  8

$$$$
9549300
  -OEChem-11021605012D

 43 46  0     0  0  0  0  0  0999 V2000
    2.0000   -0.5173    0.0000 Cl  0  0  0  0  0  0  0  0  0  0  0  0
    2.0000   -2.5173    0.0000 F   0  0  0  0  0  0  0  0  0  0  0  0
    5.4641   -0.5173    0.0000 N   0  0  0  0  0  0  0  0  0  0  0  0
    8.9942    0.4585    0.0000 N   0  0  0  0  0  0  0  0  0  0  0  0
    8.1301    2.0035    0.0000 N   0  0  0  0  0  0  0  0  0  0  0  0
    5.4641    2.4827    0.0000 N   0  0  0  0  0  0  0  0  0  0  0  0
   12.4583    0.4452    0.0000 N   0  0  0  0  0  0  0  0  0  0  0  0
    2.8660   -0.0173    0.0000 N   0  0  0  0  0  0  0  0  0  0  0  0
    6.3301    0.9827    0.0000 C   0  0  0  0  0  0  0  0  0  0  0  0
    5.4641    0.4827    0.0000 C   0  0  0  0  0  0  0  0  0  0  0  0
    6.3301    1.9827    0.0000 C   0  0  0  0  0  0  0  0  0  0  0  0
    7.2241    0.4480    0.0000 C   0  0  0  0  0  0  0  0  0  0  0  0
    8.1301    0.9619    0.0000 C   0  0  0  0  0  0  0  0  0  0  0  0
    4.5981    0.9827    0.0000 C   0  0  0  0  0  0  0  0  0  0  0  0
    9.8622    0.9552    0.0000 C   0  0  0  0  0  0  0  0  0  0  0  0
    7.2241    2.5173    0.0000 C   0  0  0  0  0  0  0  0  0  0  0  0
    4.5981   -1.0173    0.0000 C   0  0  0  0  0  0  0  0  0  0  0  0
    4.5981    1.9827    0.0000 C   0  0  0  0  0  0  0  0  0  0  0  0
   10.7263    0.4518    0.0000 C   0  0  0  0  0  0  0  0  0  0  0  0
    3.7320   -0.5173    0.0000 C   0  0  0  0  0  0  0  0  0  0  0  0
    4.5981   -2.0173    0.0000 C   0  0  0  0  0  0  0  0  0  0  0  0
   10.7224   -0.5481    0.0000 C   0  0  0  0  0  0  0  0  0  0  0  0
   11.5942    0.9485    0.0000 C   0  0  0  0  0  0  0  0  0  0  0  0
    2.8660   -1.0173    0.0000 C   0  0  0  0  0  0  0  0  0  0  0  0
    3.7320   -2.5173    0.0000 C   0  0  0  0  0  0  0  0  0  0  0  0
    2.8660   -2.0173    0.0000 C   0  0  0  0  0  0  0  0  0  0  0  0
    3.7320    0.4827    0.0000 C   0  0  0  0  0  0  0  0  0  0  0  0
   11.5865   -1.0515    0.0000 C   0  0  0  0  0  0  0  0  0  0  0  0
   12.4544   -0.5548    0.0000 C   0  0  0  0  0  0  0  0  0  0  0  0
    7.2169   -0.1720    0.0000 H   0  0  0  0  0  0  0  0  0  0  0  0
    6.0010   -0.8273    0.0000 H   0  0  0  0  0  0  0  0  0  0  0  0
   10.2625    1.4286    0.0000 H   0  0  0  0  0  0  0  0  0  0  0  0
    9.4655    1.4317    0.0000 H   0  0  0  0  0  0  0  0  0  0  0  0
    8.9918   -0.1615    0.0000 H   0  0  0  0  0  0  0  0  0  0  0  0
    7.2169    3.1373    0.0000 H   0  0  0  0  0  0  0  0  0  0  0  0
    4.0611    2.2927    0.0000 H   0  0  0  0  0  0  0  0  0  0  0  0
    3.7320    0.1027    0.0000 H   0  0  0  0  0  0  0  0  0  0  0  0
    5.1350   -2.3273    0.0000 H   0  0  0  0  0  0  0  0  0  0  0  0
   10.1843   -0.8561    0.0000 H   0  0  0  0  0  0  0  0  0  0  0  0
   11.5966    1.5685    0.0000 H   0  0  0  0  0  0  0  0  0  0  0  0
    3.7320   -3.1373    0.0000 H   0  0  0  0  0  0  0  0  0  0  0  0
   11.5841   -1.6715    0.0000 H   0  0  0  0  0  0  0  0  0  0  0  0
   12.9902   -0.8669    0.0000 H   0  0  0  0  0  0  0  0  0  0  0  0
  1 24  1  0  0  0  0
  2 26  1  0  0  0  0
  3 10  1  0  0  0  0
  3 17  1  0  0  0  0
  3 31  1  0  0  0  0
  4 13  1  0  0  0  0
  4 15  1  0  0  0  0
  4 34  1  0  0  0  0
  5 13  2  0  0  0  0
  5 16  1  0  0  0  0
  6 11  1  0  0  0  0
  6 18  2  0  0  0  0
  7 23  1  0  0  0  0
  7 29  2  0  0  0  0
  8 27  3  0  0  0  0
  9 10  1  0  0  0  0
  9 11  1  0  0  0  0
  9 12  2  0  0  0  0
 10 14  2  0  0  0  0
 11 16  2  0  0  0  0
 12 13  1  0  0  0  0
 12 30  1  0  0  0  0
 14 18  1  0  0  0  0
 14 27  1  0  0  0  0
 15 19  1  0  0  0  0
 15 32  1  0  0  0  0
 15 33  1  0  0  0  0
 16 35  1  0  0  0  0
 17 20  2  0  0  0  0
 17 21  1  0  0  0  0
 18 36  1  0  0  0  0
 19 22  1  0  0  0  0
 19 23  2  0  0  0  0
 20 24  1  0  0  0  0
 20 37  1  0  0  0  0
 21 25  2  0  0  0  0
 21 38  1  0  0  0  0
 22 28  2  0  0  0  0
 22 39  1  0  0  0  0
 23 40  1  0  0  0  0
 24 26  2  0  0  0  0
 25 26  1  0  0  0  0
 25 41  1  0  0  0  0
 28 29  1  0  0  0  0
 28 42  1  0  0  0  0
 29 43  1  0  0  0  0
M  END
> <PUBCHEM_COMPOUND_CID>
9549300

> <PUBCHEM_COMPOUND_CANONICALIZED>
1

> <PUBCHEM_CACTVS_COMPLEXITY>
585

> <PUBCHEM_CACTVS_HBOND_ACCEPTOR>
7

> <PUBCHEM_CACTVS_HBOND_DONOR>
2

> <PUBCHEM_CACTVS_ROTATABLE_BOND>
5

> <PUBCHEM_CACTVS_SUBSKEYS>
AAADccB7gQAEAAAAAAAAAAAAAAAAAAAAAAA8WLEAAAAAAACx/gAAHQIQAAAADArBHiw98PLIEACwBzZnZACigC0xFyAJ2KA4dpiI4OLB29GUJAhokALIyC8QAAAOAAAAAAIAAAAAAAAABAAAAAAAAAAAAA==

> <PUBCHEM_IUPAC_OPENEYE_NAME>
4-(3-chloro-4-fluoro-anilino)-6-(3-pyridylmethylamino)-1,7-naphthyridine-3-carbonitrile

> <PUBCHEM_IUPAC_CAS_NAME>
4-(3-chloro-4-fluoroanilino)-6-(3-pyridinylmethylamino)-1,7-naphthyridine-3-carbonitrile

> <PUBCHEM_IUPAC_NAME>
4-(3-chloro-4-fluoroanilino)-6-(pyridin-3-ylmethylamino)-1,7-naphthyridine-3-carbonitrile

> <PUBCHEM_IUPAC_SYSTEMATIC_NAME>
4-[(3-chloranyl-4-fluoranyl-phenyl)amino]-6-(pyridin-3-ylmethylamino)-1,7-naphthyridine-3-carbonitrile

> <PUBCHEM_IUPAC_TRADITIONAL_NAME>
4-(3-chloro-4-fluoro-anilino)-6-(3-pyridylmethylamino)-1,7-naphthyridine-3-carbonitrile

> <PUBCHEM_IUPAC_INCHI>
InChI=1S/C21H14ClFN6/c22-17-6-15(3-4-18(17)23)29-21-14(8-24)11-26-19-12-28-20(7-16(19)21)27-10-13-2-1-5-25-9-13/h1-7,9,11-12H,10H2,(H,26,29)(H,27,28)

> <PUBCHEM_IUPAC_INCHIKEY>
NMEUKWOOQOHUNA-UHFFFAOYSA-N

> <PUBCHEM_XLOGP3_AA>
4.4

> <PUBCHEM_EXACT_MASS>
404.095

> <PUBCHEM_MOLECULAR_FORMULA>
C21H14ClFN6

> <PUBCHEM_MOLECULAR_WEIGHT>
404.833

> <PUBCHEM_OPENEYE_CAN_SMILES>
C1=CC(=CN=C1)CNC2=NC=C3C(=C2)C(=C(C=N3)C#N)NC4=CC(=C(C=C4)F)Cl

> <PUBCHEM_OPENEYE_ISO_SMILES>
C1=CC(=CN=C1)CNC2=NC=C3C(=C2)C(=C(C=N3)C#N)NC4=CC(=C(C=C4)F)Cl

> <PUBCHEM_CACTVS_TPSA>
86.5

> <PUBCHEM_MONOISOTOPIC_WEIGHT>
404.095

> <PUBCHEM_TOTAL_CHARGE>
0

> <PUBCHEM_HEAVY_ATOM_COUNT>
29

> <PUBCHEM_ATOM_DEF_STEREO_COUNT>
0

> <PUBCHEM_ATOM_UDEF_STEREO_COUNT>
0

> <PUBCHEM_BOND_DEF_STEREO_COUNT>
0

> <PUBCHEM_BOND_UDEF_STEREO_COUNT>
0

> <PUBCHEM_ISOTOPIC_ATOM_COUNT>
0

> <PUBCHEM_COMPONENT_COUNT>
1

> <PUBCHEM_CACTVS_TAUTO_COUNT>
6

> <PUBCHEM_COORDINATE_TYPE>
1
5
255

> <PUBCHEM_BONDANNOTATIONS>
10  14  8
11  16  8
12  13  8
14  18  8
17  20  8
17  21  8
19  22  8
19  23  8
20  24  8
21  25  8
22  28  8
24  26  8
25  26  8
28  29  8
5  13  8
5  16  8
6  11  8
6  18  8
7  23  8
7  29  8
9  10  8
9  11  8
9  12  8

$$$$
4665
  -OEChem-11021605012D

 39 42  0     0  0  0  0  0  0999 V2000
    2.0000    4.3874    0.0000 Cl  0  0  0  0  0  0  0  0  0  0  0  0
    4.8511   -4.3874    0.0000 F   0  0  0  0  0  0  0  0  0  0  0  0
    3.0911   -0.1087    0.0000 O   0  0  0  0  0  0  0  0  0  0  0  0
    4.3511    1.1514    0.0000 N   0  0  0  0  0  0  0  0  0  0  0  0
    5.3511    1.1514    0.0000 N   0  0  0  0  0  0  0  0  0  0  0  0
    8.5133   -0.7267    0.0000 N   0  0  0  0  0  0  0  0  0  0  0  0
    4.8511   -0.3875    0.0000 C   0  0  0  0  0  0  0  0  0  0  0  0
    5.6602    0.2003    0.0000 C   0  0  0  0  0  0  0  0  0  0  0  0
    4.0421    0.2003    0.0000 C   0  0  0  0  0  0  0  0  0  0  0  0
    4.8511   -1.3874    0.0000 C   0  0  0  0  0  0  0  0  0  0  0  0
    6.6112   -0.1087    0.0000 C   0  0  0  0  0  0  0  0  0  0  0  0
    3.7634    1.9604    0.0000 C   0  0  0  0  0  0  0  0  0  0  0  0
    3.9851   -1.8874    0.0000 C   0  0  0  0  0  0  0  0  0  0  0  0
    5.7172   -1.8874    0.0000 C   0  0  0  0  0  0  0  0  0  0  0  0
    4.1701    2.8739    0.0000 C   0  0  0  0  0  0  0  0  0  0  0  0
    2.7688    1.8559    0.0000 C   0  0  0  0  0  0  0  0  0  0  0  0
    7.3544    0.5604    0.0000 C   0  0  0  0  0  0  0  0  0  0  0  0
    6.8191   -1.0868    0.0000 C   0  0  0  0  0  0  0  0  0  0  0  0
    3.9851   -2.8874    0.0000 C   0  0  0  0  0  0  0  0  0  0  0  0
    5.7172   -2.8874    0.0000 C   0  0  0  0  0  0  0  0  0  0  0  0
    3.5823    3.6830    0.0000 C   0  0  0  0  0  0  0  0  0  0  0  0
    2.1810    2.6649    0.0000 C   0  0  0  0  0  0  0  0  0  0  0  0
    4.8511   -3.3874    0.0000 C   0  0  0  0  0  0  0  0  0  0  0  0
    2.5878    3.5784    0.0000 C   0  0  0  0  0  0  0  0  0  0  0  0
    8.3054    0.2514    0.0000 C   0  0  0  0  0  0  0  0  0  0  0  0
    7.7702   -1.3958    0.0000 C   0  0  0  0  0  0  0  0  0  0  0  0
    5.7156    1.6530    0.0000 H   0  0  0  0  0  0  0  0  0  0  0  0
    3.4482   -1.5774    0.0000 H   0  0  0  0  0  0  0  0  0  0  0  0
    6.2541   -1.5774    0.0000 H   0  0  0  0  0  0  0  0  0  0  0  0
    4.7867    2.9388    0.0000 H   0  0  0  0  0  0  0  0  0  0  0  0
    2.5167    1.2895    0.0000 H   0  0  0  0  0  0  0  0  0  0  0  0
    7.2254    1.1669    0.0000 H   0  0  0  0  0  0  0  0  0  0  0  0
    6.3584   -1.5017    0.0000 H   0  0  0  0  0  0  0  0  0  0  0  0
    3.4482   -3.1974    0.0000 H   0  0  0  0  0  0  0  0  0  0  0  0
    6.2541   -3.1974    0.0000 H   0  0  0  0  0  0  0  0  0  0  0  0
    3.8345    4.2494    0.0000 H   0  0  0  0  0  0  0  0  0  0  0  0
    1.5644    2.6001    0.0000 H   0  0  0  0  0  0  0  0  0  0  0  0
    8.7662    0.6663    0.0000 H   0  0  0  0  0  0  0  0  0  0  0  0
    7.8991   -2.0023    0.0000 H   0  0  0  0  0  0  0  0  0  0  0  0
  1 24  1  0  0  0  0
  2 23  1  0  0  0  0
  3  9  2  0  0  0  0
  4  5  1  0  0  0  0
  4  9  1  0  0  0  0
  4 12  1  0  0  0  0
  5  8  1  0  0  0  0
  5 27  1  0  0  0  0
  6 25  2  0  0  0  0
  6 26  1  0  0  0  0
  7  8  2  0  0  0  0
  7  9  1  0  0  0  0
  7 10  1  0  0  0  0
  8 11  1  0  0  0  0
 10 13  2  0  0  0  0
 10 14  1  0  0  0  0
 11 17  2  0  0  0  0
 11 18  1  0  0  0  0
 12 15  2  0  0  0  0
 12 16  1  0  0  0  0
 13 19  1  0  0  0  0
 13 28  1  0  0  0  0
 14 20  2  0  0  0  0
 14 29  1  0  0  0  0
 15 21  1  0  0  0  0
 15 30  1  0  0  0  0
 16 22  2  0  0  0  0
 16 31  1  0  0  0  0
 17 25  1  0  0  0  0
 17 32  1  0  0  0  0
 18 26  2  0  0  0  0
 18 33  1  0  0  0  0
 19 23  2  0  0  0  0
 19 34  1  0  0  0  0
 20 23  1  0  0  0  0
 20 35  1  0  0  0  0
 21 24  2  0  0  0  0
 21 36  1  0  0  0  0
 22 24  1  0  0  0  0
 22 37  1  0  0  0  0
 25 38  1  0  0  0  0
 26 39  1  0  0  0  0
M  END
> <PUBCHEM_COMPOUND_CID>
4665

> <PUBCHEM_COMPOUND_CANONICALIZED>
1

> <PUBCHEM_CACTVS_COMPLEXITY>
547

> <PUBCHEM_CACTVS_HBOND_ACCEPTOR>
4

> <PUBCHEM_CACTVS_HBOND_DONOR>
1

> <PUBCHEM_CACTVS_ROTATABLE_BOND>
3

> <PUBCHEM_CACTVS_SUBSKEYS>
AAADccB7IQAEAAAAAAAAAAAAAAAAAQAAAAA8YIAAAAAAAAAB0AAAHwIYAAAADArBmiw8wJJqEACoAjV3VACChCAxByAa+CE4ZtgIIHLBl5GEIAhghADIyUcYiICOAABAAAAAAAAAAIAAAAAAAAAAAAAAAA==

> <PUBCHEM_IUPAC_OPENEYE_NAME>
2-(4-chlorophenyl)-4-(4-fluorophenyl)-5-(4-pyridyl)-1H-pyrazol-3-one

> <PUBCHEM_IUPAC_CAS_NAME>
2-(4-chlorophenyl)-4-(4-fluorophenyl)-5-pyridin-4-yl-1H-pyrazol-3-one

> <PUBCHEM_IUPAC_NAME>
2-(4-chlorophenyl)-4-(4-fluorophenyl)-5-pyridin-4-yl-1H-pyrazol-3-one

> <PUBCHEM_IUPAC_SYSTEMATIC_NAME>
2-(4-chlorophenyl)-4-(4-fluorophenyl)-5-pyridin-4-yl-1H-pyrazol-3-one

> <PUBCHEM_IUPAC_TRADITIONAL_NAME>
2-(4-chlorophenyl)-4-(4-fluorophenyl)-5-(4-pyridyl)-3-pyrazolin-3-one

> <PUBCHEM_IUPAC_INCHI>
InChI=1S/C20H13ClFN3O/c21-15-3-7-17(8-4-15)25-20(26)18(13-1-5-16(22)6-2-13)19(24-25)14-9-11-23-12-10-14/h1-12,24H

> <PUBCHEM_IUPAC_INCHIKEY>
DZFBYHUKZSRPHU-UHFFFAOYSA-N

> <PUBCHEM_XLOGP3_AA>
4.4

> <PUBCHEM_EXACT_MASS>
365.073

> <PUBCHEM_MOLECULAR_FORMULA>
C20H13ClFN3O

> <PUBCHEM_MOLECULAR_WEIGHT>
365.792

> <PUBCHEM_OPENEYE_CAN_SMILES>
C1=CC(=CC=C1C2=C(NN(C2=O)C3=CC=C(C=C3)Cl)C4=CC=NC=C4)F

> <PUBCHEM_OPENEYE_ISO_SMILES>
C1=CC(=CC=C1C2=C(NN(C2=O)C3=CC=C(C=C3)Cl)C4=CC=NC=C4)F

> <PUBCHEM_CACTVS_TPSA>
45.2

> <PUBCHEM_MONOISOTOPIC_WEIGHT>
365.073

> <PUBCHEM_TOTAL_CHARGE>
0

> <PUBCHEM_HEAVY_ATOM_COUNT>
26

> <PUBCHEM_ATOM_DEF_STEREO_COUNT>
0

> <PUBCHEM_ATOM_UDEF_STEREO_COUNT>
0

> <PUBCHEM_BOND_DEF_STEREO_COUNT>
0

> <PUBCHEM_BOND_UDEF_STEREO_COUNT>
0

> <PUBCHEM_ISOTOPIC_ATOM_COUNT>
0

> <PUBCHEM_COMPONENT_COUNT>
1

> <PUBCHEM_CACTVS_TAUTO_COUNT>
3

> <PUBCHEM_COORDINATE_TYPE>
1
5
255

> <PUBCHEM_BONDANNOTATIONS>
10  13  8
10  14  8
11  17  8
11  18  8
12  15  8
12  16  8
13  19  8
14  20  8
15  21  8
16  22  8
17  25  8
18  26  8
19  23  8
20  23  8
21  24  8
22  24  8
4  5  8
4  9  8
5  8  8
6  25  8
6  26  8
7  8  8
7  9  8

$$$$
6450842
  -OEChem-11021605012D

 36 38  0     0  0  0  0  0  0999 V2000
    6.2619   -1.0683    0.0000 O   0  0  0  0  0  0  0  0  0  0  0  0
    4.6783   -1.8730    0.0000 N   0  0  0  0  0  0  0  0  0  0  0  0
    8.9030    1.5118    0.0000 N   0  0  0  0  0  0  0  0  0  0  0  0
    3.7320   -0.5683    0.0000 C   0  0  0  0  0  0  0  0  0  0  0  0
    4.6783   -0.2636    0.0000 C   0  0  0  0  0  0  0  0  0  0  0  0
    3.7320   -1.5683    0.0000 C   0  0  0  0  0  0  0  0  0  0  0  0
    4.9889    0.6870    0.0000 C   0  0  0  0  0  0  0  0  0  0  0  0
    5.2619   -1.0683    0.0000 C   0  0  0  0  0  0  0  0  0  0  0  0
    5.9674    0.8932    0.0000 C   0  0  0  0  0  0  0  0  0  0  0  0
    2.8660   -0.0683    0.0000 C   0  0  0  0  0  0  0  0  0  0  0  0
    7.9244    1.3056    0.0000 C   0  0  0  0  0  0  0  0  0  0  0  0
    2.8660   -2.0683    0.0000 C   0  0  0  0  0  0  0  0  0  0  0  0
    6.2781    1.8437    0.0000 C   0  0  0  0  0  0  0  0  0  0  0  0
    6.6353    0.1489    0.0000 C   0  0  0  0  0  0  0  0  0  0  0  0
    7.2566    2.0499    0.0000 C   0  0  0  0  0  0  0  0  0  0  0  0
    7.6138    0.3551    0.0000 C   0  0  0  0  0  0  0  0  0  0  0  0
    2.0000   -0.5683    0.0000 C   0  0  0  0  0  0  0  0  0  0  0  0
    2.0000   -1.5683    0.0000 C   0  0  0  0  0  0  0  0  0  0  0  0
    9.2136    2.4623    0.0000 C   0  0  0  0  0  0  0  0  0  0  0  0
    9.5708    0.7675    0.0000 C   0  0  0  0  0  0  0  0  0  0  0  0
    4.5749    1.1484    0.0000 H   0  0  0  0  0  0  0  0  0  0  0  0
    4.8709   -2.4623    0.0000 H   0  0  0  0  0  0  0  0  0  0  0  0
    2.8660    0.5517    0.0000 H   0  0  0  0  0  0  0  0  0  0  0  0
    2.8660   -2.6883    0.0000 H   0  0  0  0  0  0  0  0  0  0  0  0
    5.8640    2.3052    0.0000 H   0  0  0  0  0  0  0  0  0  0  0  0
    6.4427   -0.4404    0.0000 H   0  0  0  0  0  0  0  0  0  0  0  0
    7.4492    2.6392    0.0000 H   0  0  0  0  0  0  0  0  0  0  0  0
    8.0279   -0.1064    0.0000 H   0  0  0  0  0  0  0  0  0  0  0  0
    1.4631   -0.2583    0.0000 H   0  0  0  0  0  0  0  0  0  0  0  0
    1.4631   -1.8783    0.0000 H   0  0  0  0  0  0  0  0  0  0  0  0
    9.8029    2.2697    0.0000 H   0  0  0  0  0  0  0  0  0  0  0  0
    9.4062    3.0517    0.0000 H   0  0  0  0  0  0  0  0  0  0  0  0
    9.1093    0.3535    0.0000 H   0  0  0  0  0  0  0  0  0  0  0  0
    9.9849    0.3061    0.0000 H   0  0  0  0  0  0  0  0  0  0  0  0
   10.0323    1.1816    0.0000 H   0  0  0  0  0  0  0  0  0  0  0  0
    8.6243    2.6550    0.0000 H   0  0  0  0  0  0  0  0  0  0  0  0
  1  8  2  0  0  0  0
  2  6  1  0  0  0  0
  2  8  1  0  0  0  0
  2 22  1  0  0  0  0
  3 11  1  0  0  0  0
  3 19  1  0  0  0  0
  3 20  1  0  0  0  0
  4  5  1  0  0  0  0
  4  6  1  0  0  0  0
  4 10  2  0  0  0  0
  5  7  2  0  0  0  0
  5  8  1  0  0  0  0
  6 12  2  0  0  0  0
  7  9  1  0  0  0  0
  7 21  1  0  0  0  0
  9 13  2  0  0  0  0
  9 14  1  0  0  0  0
 10 17  1  0  0  0  0
 10 23  1  0  0  0  0
 11 15  2  0  0  0  0
 11 16  1  0  0  0  0
 12 18  1  0  0  0  0
 12 24  1  0  0  0  0
 13 15  1  0  0  0  0
 13 25  1  0  0  0  0
 14 16  2  0  0  0  0
 14 26  1  0  0  0  0
 15 27  1  0  0  0  0
 16 28  1  0  0  0  0
 17 18  2  0  0  0  0
 17 29  1  0  0  0  0
 18 30  1  0  0  0  0
 19 31  1  0  0  0  0
 19 32  1  0  0  0  0
 19 36  1  0  0  0  0
 20 33  1  0  0  0  0
 20 34  1  0  0  0  0
 20 35  1  0  0  0  0
M  END
> <PUBCHEM_COMPOUND_CID>
6450842

> <PUBCHEM_COMPOUND_CANONICALIZED>
1

> <PUBCHEM_CACTVS_COMPLEXITY>
394

> <PUBCHEM_CACTVS_HBOND_ACCEPTOR>
2

> <PUBCHEM_CACTVS_HBOND_DONOR>
1

> <PUBCHEM_CACTVS_ROTATABLE_BOND>
2

> <PUBCHEM_CACTVS_SUBSKEYS>
AAADceB7IAAAAAAAAAAAAAAAAAAAAWAAAAAwYAAAAAAAAFgBQAAAHgAQAAAADAiBmAQywIPAAACIAiVSUACCAAAhAgAIiAEIZMgIIDLAlZGEIAhglADIyYcciICOCAAAAAACAAAQAAAAAAQAAAAAAAAAAA==

> <PUBCHEM_IUPAC_OPENEYE_NAME>
(3Z)-3-[[4-(dimethylamino)phenyl]methylene]indolin-2-one

> <PUBCHEM_IUPAC_CAS_NAME>
(3Z)-3-[[4-(dimethylamino)phenyl]methylidene]-1H-indol-2-one

> <PUBCHEM_IUPAC_NAME>
(3Z)-3-[[4-(dimethylamino)phenyl]methylidene]-1H-indol-2-one

> <PUBCHEM_IUPAC_SYSTEMATIC_NAME>
(3Z)-3-[[4-(dimethylamino)phenyl]methylidene]-1H-indol-2-one

> <PUBCHEM_IUPAC_TRADITIONAL_NAME>
(3Z)-3-[4-(dimethylamino)benzylidene]oxindole

> <PUBCHEM_IUPAC_INCHI>
InChI=1S/C17H16N2O/c1-19(2)13-9-7-12(8-10-13)11-15-14-5-3-4-6-16(14)18-17(15)20/h3-11H,1-2H3,(H,18,20)/b15-11-

> <PUBCHEM_IUPAC_INCHIKEY>
UAKWLVYMKBWHMX-PTNGSMBKSA-N

> <PUBCHEM_XLOGP3_AA>
3

> <PUBCHEM_EXACT_MASS>
264.126

> <PUBCHEM_MOLECULAR_FORMULA>
C17H16N2O

> <PUBCHEM_MOLECULAR_WEIGHT>
264.328

> <PUBCHEM_OPENEYE_CAN_SMILES>
CN(C)C1=CC=C(C=C1)C=C2C3=CC=CC=C3NC2=O

> <PUBCHEM_OPENEYE_ISO_SMILES>
CN(C)C1=CC=C(C=C1)/C=C\2/C3=CC=CC=C3NC2=O

> <PUBCHEM_CACTVS_TPSA>
32.3

> <PUBCHEM_MONOISOTOPIC_WEIGHT>
264.126

> <PUBCHEM_TOTAL_CHARGE>
0

> <PUBCHEM_HEAVY_ATOM_COUNT>
20

> <PUBCHEM_ATOM_DEF_STEREO_COUNT>
0

> <PUBCHEM_ATOM_UDEF_STEREO_COUNT>
0

> <PUBCHEM_BOND_DEF_STEREO_COUNT>
1

> <PUBCHEM_BOND_UDEF_STEREO_COUNT>
0

> <PUBCHEM_ISOTOPIC_ATOM_COUNT>
0

> <PUBCHEM_COMPONENT_COUNT>
1

> <PUBCHEM_CACTVS_TAUTO_COUNT>
2

> <PUBCHEM_COORDINATE_TYPE>
1
5
255

> <PUBCHEM_BONDANNOTATIONS>
10  17  8
11  15  8
11  16  8
12  18  8
13  15  8
14  16  8
17  18  8
4  10  8
4  6  8
6  12  8
9  13  8
9  14  8

$$$$
10020713
  -OEChem-11021605012D

 41 44  0     0  0  0  0  0  0999 V2000
    7.8540   -3.4269    0.0000 O   0  0  0  0  0  0  0  0  0  0  0  0
    7.3460    1.1648    0.0000 O   0  0  0  0  0  0  0  0  0  0  0  0
    5.2818    4.0162    0.0000 O   0  0  0  0  0  0  0  0  0  0  0  0
    5.2757   -1.1134    0.0000 N   0  0  0  0  0  0  0  0  0  0  0  0
    3.4635   -1.3087    0.0000 N   0  0  0  0  0  0  0  0  0  0  0  0
    6.5397    2.7540    0.0000 N   0  0  0  0  0  0  0  0  0  0  0  0
    3.4985    1.3932    0.0000 N   0  0  0  0  0  0  0  0  0  0  0  0
    2.5015    3.1270    0.0000 N   0  0  0  0  0  0  0  0  0  0  0  0
    5.2757    0.4961    0.0000 C   0  0  0  0  0  0  0  0  0  0  0  0
    4.3295    0.1913    0.0000 C   0  0  0  0  0  0  0  0  0  0  0  0
    4.3295   -0.8087    0.0000 C   0  0  0  0  0  0  0  0  0  0  0  0
    5.5864   -2.0639    0.0000 C   0  0  0  0  0  0  0  0  0  0  0  0
    5.8593   -0.3087    0.0000 C   0  0  0  0  0  0  0  0  0  0  0  0
    5.5864    1.4466    0.0000 C   0  0  0  0  0  0  0  0  0  0  0  0
    6.5649   -2.2701    0.0000 C   0  0  0  0  0  0  0  0  0  0  0  0
    5.0000    2.2566    0.0000 C   0  0  0  0  0  0  0  0  0  0  0  0
    3.4635    0.6913    0.0000 C   0  0  0  0  0  0  0  0  0  0  0  0
    6.5380    1.7540    0.0000 C   0  0  0  0  0  0  0  0  0  0  0  0
    6.8756   -3.2207    0.0000 C   0  0  0  0  0  0  0  0  0  0  0  0
    5.5892    3.0646    0.0000 C   0  0  0  0  0  0  0  0  0  0  0  0
    2.5974    0.1913    0.0000 C   0  0  0  0  0  0  0  0  0  0  0  0
    4.0000    2.2584    0.0000 C   0  0  0  0  0  0  0  0  0  0  0  0
    2.5974   -0.8087    0.0000 C   0  0  0  0  0  0  0  0  0  0  0  0
    3.5015    3.1252    0.0000 C   0  0  0  0  0  0  0  0  0  0  0  0
    2.4985    1.3949    0.0000 C   0  0  0  0  0  0  0  0  0  0  0  0
    2.0000    2.2618    0.0000 C   0  0  0  0  0  0  0  0  0  0  0  0
    4.9726   -2.1513    0.0000 H   0  0  0  0  0  0  0  0  0  0  0  0
    5.5658   -2.6836    0.0000 H   0  0  0  0  0  0  0  0  0  0  0  0
    6.4793   -0.3087    0.0000 H   0  0  0  0  0  0  0  0  0  0  0  0
    7.1787   -2.1828    0.0000 H   0  0  0  0  0  0  0  0  0  0  0  0
    6.5854   -1.6505    0.0000 H   0  0  0  0  0  0  0  0  0  0  0  0
    3.4635    1.3113    0.0000 H   0  0  0  0  0  0  0  0  0  0  0  0
    6.2617   -3.3080    0.0000 H   0  0  0  0  0  0  0  0  0  0  0  0
    6.8550   -3.8403    0.0000 H   0  0  0  0  0  0  0  0  0  0  0  0
    7.0419    3.1175    0.0000 H   0  0  0  0  0  0  0  0  0  0  0  0
    2.0605    0.5013    0.0000 H   0  0  0  0  0  0  0  0  0  0  0  0
    2.0605   -1.1187    0.0000 H   0  0  0  0  0  0  0  0  0  0  0  0
    3.8124    3.6616    0.0000 H   0  0  0  0  0  0  0  0  0  0  0  0
    8.0467   -4.0162    0.0000 H   0  0  0  0  0  0  0  0  0  0  0  0
    2.1876    0.8585    0.0000 H   0  0  0  0  0  0  0  0  0  0  0  0
    1.3800    2.2629    0.0000 H   0  0  0  0  0  0  0  0  0  0  0  0
  1 19  1  0  0  0  0
  1 39  1  0  0  0  0
  2 18  2  0  0  0  0
  3 20  2  0  0  0  0
  4 11  1  0  0  0  0
  4 12  1  0  0  0  0
  4 13  1  0  0  0  0
  5 11  1  0  0  0  0
  5 23  2  0  0  0  0
  6 18  1  0  0  0  0
  6 20  1  0  0  0  0
  6 35  1  0  0  0  0
  7 22  2  0  0  0  0
  7 25  1  0  0  0  0
  8 24  2  0  0  0  0
  8 26  1  0  0  0  0
  9 10  1  0  0  0  0
  9 13  2  0  0  0  0
  9 14  1  0  0  0  0
 10 11  2  0  0  0  0
 10 17  1  0  0  0  0
 12 15  1  0  0  0  0
 12 27  1  0  0  0  0
 12 28  1  0  0  0  0
 13 29  1  0  0  0  0
 14 16  2  0  0  0  0
 14 18  1  0  0  0  0
 15 19  1  0  0  0  0
 15 30  1  0  0  0  0
 15 31  1  0  0  0  0
 16 20  1  0  0  0  0
 16 22  1  0  0  0  0
 17 21  2  0  0  0  0
 17 32  1  0  0  0  0
 19 33  1  0  0  0  0
 19 34  1  0  0  0  0
 21 23  1  0  0  0  0
 21 36  1  0  0  0  0
 22 24  1  0  0  0  0
 23 37  1  0  0  0  0
 24 38  1  0  0  0  0
 25 26  2  0  0  0  0
 25 40  1  0  0  0  0
 26 41  1  0  0  0  0
M  END
> <PUBCHEM_COMPOUND_CID>
10020713

> <PUBCHEM_COMPOUND_CANONICALIZED>
1

> <PUBCHEM_CACTVS_COMPLEXITY>
608

> <PUBCHEM_CACTVS_HBOND_ACCEPTOR>
6

> <PUBCHEM_CACTVS_HBOND_DONOR>
2

> <PUBCHEM_CACTVS_ROTATABLE_BOND>
5

> <PUBCHEM_CACTVS_SUBSKEYS>
AAADccB7sAAAAAAAAAAAAAAAAAAAAWIAAAAsWAAAAAAAAFgB/gAAHgAQCAAADAjhnwY9sN/MEgCoAzd3dACCgC0xEqAJ2CE4dNiIePrA3ZGUYAhqhCLIyScciQCOgAAAAAAAAAAAAAAAAAAAAAAAAAAAAA==

> <PUBCHEM_IUPAC_OPENEYE_NAME>
3-[1-(3-hydroxypropyl)pyrrolo[2,3-b]pyridin-3-yl]-4-pyrazin-2-yl-pyrrole-2,5-dione

> <PUBCHEM_IUPAC_CAS_NAME>
3-[1-(3-hydroxypropyl)-3-pyrrolo[2,3-b]pyridinyl]-4-(2-pyrazinyl)pyrrole-2,5-dione

> <PUBCHEM_IUPAC_NAME>
3-[1-(3-hydroxypropyl)pyrrolo[2,3-b]pyridin-3-yl]-4-pyrazin-2-ylpyrrole-2,5-dione

> <PUBCHEM_IUPAC_SYSTEMATIC_NAME>
3-[1-(3-oxidanylpropyl)pyrrolo[2,3-b]pyridin-3-yl]-4-pyrazin-2-yl-pyrrole-2,5-dione

> <PUBCHEM_IUPAC_TRADITIONAL_NAME>
3-[1-(3-hydroxypropyl)pyrrolo[2,3-b]pyridin-3-yl]-4-pyrazin-2-yl-3-pyrroline-2,5-quinone

> <PUBCHEM_IUPAC_INCHI>
InChI=1S/C18H15N5O3/c24-8-2-7-23-10-12(11-3-1-4-21-16(11)23)14-15(18(26)22-17(14)25)13-9-19-5-6-20-13/h1,3-6,9-10,24H,2,7-8H2,(H,22,25,26)

> <PUBCHEM_IUPAC_INCHIKEY>
ZDEJZKULWCZIHL-UHFFFAOYSA-N

> <PUBCHEM_XLOGP3_AA>
-0.6

> <PUBCHEM_EXACT_MASS>
349.117

> <PUBCHEM_MOLECULAR_FORMULA>
C18H15N5O3

> <PUBCHEM_MOLECULAR_WEIGHT>
349.35

> <PUBCHEM_OPENEYE_CAN_SMILES>
C1=CC2=C(N=C1)N(C=C2C3=C(C(=O)NC3=O)C4=NC=CN=C4)CCCO

> <PUBCHEM_OPENEYE_ISO_SMILES>
C1=CC2=C(N=C1)N(C=C2C3=C(C(=O)NC3=O)C4=NC=CN=C4)CCCO

> <PUBCHEM_CACTVS_TPSA>
110

> <PUBCHEM_MONOISOTOPIC_WEIGHT>
349.117

> <PUBCHEM_TOTAL_CHARGE>
0

> <PUBCHEM_HEAVY_ATOM_COUNT>
26

> <PUBCHEM_ATOM_DEF_STEREO_COUNT>
0

> <PUBCHEM_ATOM_UDEF_STEREO_COUNT>
0

> <PUBCHEM_BOND_DEF_STEREO_COUNT>
0

> <PUBCHEM_BOND_UDEF_STEREO_COUNT>
0

> <PUBCHEM_ISOTOPIC_ATOM_COUNT>
0

> <PUBCHEM_COMPONENT_COUNT>
1

> <PUBCHEM_CACTVS_TAUTO_COUNT>
3

> <PUBCHEM_COORDINATE_TYPE>
1
5
255

> <PUBCHEM_BONDANNOTATIONS>
10  11  8
10  17  8
17  21  8
21  23  8
22  24  8
25  26  8
4  11  8
4  13  8
5  11  8
5  23  8
7  22  8
7  25  8
8  24  8
8  26  8
9  10  8
9  13  8

$$$$
5328804
  -OEChem-11021605012D

 26 26  0     0  0  0  0  0  0999 V2000
    2.8660   -3.8450    0.0000 O   0  0  0  0  0  0  0  0  0  0  0  0
    2.8660    2.1550    0.0000 N   0  0  0  0  0  0  0  0  0  0  0  0
    5.4641   -0.3450    0.0000 N   0  0  0  0  0  0  0  0  0  0  0  0
    4.5981    4.1550    0.0000 N   0  0  0  0  0  0  0  0  0  0  0  0
    6.3301    1.1550    0.0000 N   0  0  0  0  0  0  0  0  0  0  0  0
    2.8660   -0.8450    0.0000 C   0  0  0  0  0  0  0  0  0  0  0  0
    2.0000   -1.3450    0.0000 C   0  0  0  0  0  0  0  0  0  0  0  0
    3.7320   -1.3450    0.0000 C   0  0  0  0  0  0  0  0  0  0  0  0
    2.8660    0.1550    0.0000 C   0  0  0  0  0  0  0  0  0  0  0  0
    2.0000   -2.3450    0.0000 C   0  0  0  0  0  0  0  0  0  0  0  0
    3.7320   -2.3450    0.0000 C   0  0  0  0  0  0  0  0  0  0  0  0
    2.8660   -2.8450    0.0000 C   0  0  0  0  0  0  0  0  0  0  0  0
    3.7320    0.6550    0.0000 C   0  0  0  0  0  0  0  0  0  0  0  0
    3.7320    1.6550    0.0000 C   0  0  0  0  0  0  0  0  0  0  0  0
    4.5981    2.1550    0.0000 C   0  0  0  0  0  0  0  0  0  0  0  0
    4.5981    0.1550    0.0000 C   0  0  0  0  0  0  0  0  0  0  0  0
    4.5981    3.1550    0.0000 C   0  0  0  0  0  0  0  0  0  0  0  0
    5.4641    1.6550    0.0000 C   0  0  0  0  0  0  0  0  0  0  0  0
    2.3291    0.4650    0.0000 H   0  0  0  0  0  0  0  0  0  0  0  0
    1.4631   -1.0350    0.0000 H   0  0  0  0  0  0  0  0  0  0  0  0
    4.2690   -1.0350    0.0000 H   0  0  0  0  0  0  0  0  0  0  0  0
    1.4631   -2.6550    0.0000 H   0  0  0  0  0  0  0  0  0  0  0  0
    4.2690   -2.6550    0.0000 H   0  0  0  0  0  0  0  0  0  0  0  0
    2.8660    2.7750    0.0000 H   0  0  0  0  0  0  0  0  0  0  0  0
    2.3291    1.8450    0.0000 H   0  0  0  0  0  0  0  0  0  0  0  0
    2.3291   -4.1550    0.0000 H   0  0  0  0  0  0  0  0  0  0  0  0
  1 12  1  0  0  0  0
  1 26  1  0  0  0  0
  2 14  1  0  0  0  0
  2 24  1  0  0  0  0
  2 25  1  0  0  0  0
  3 16  3  0  0  0  0
  4 17  3  0  0  0  0
  5 18  3  0  0  0  0
  6  7  2  0  0  0  0
  6  8  1  0  0  0  0
  6  9  1  0  0  0  0
  7 10  1  0  0  0  0
  7 20  1  0  0  0  0
  8 11  2  0  0  0  0
  8 21  1  0  0  0  0
  9 13  2  0  0  0  0
  9 19  1  0  0  0  0
 10 12  2  0  0  0  0
 10 22  1  0  0  0  0
 11 12  1  0  0  0  0
 11 23  1  0  0  0  0
 13 14  1  0  0  0  0
 13 16  1  0  0  0  0
 14 15  2  0  0  0  0
 15 17  1  0  0  0  0
 15 18  1  0  0  0  0
M  END
> <PUBCHEM_COMPOUND_CID>
5328804

> <PUBCHEM_COMPOUND_CANONICALIZED>
1

> <PUBCHEM_CACTVS_COMPLEXITY>
505

> <PUBCHEM_CACTVS_HBOND_ACCEPTOR>
5

> <PUBCHEM_CACTVS_HBOND_DONOR>
2

> <PUBCHEM_CACTVS_ROTATABLE_BOND>
2

> <PUBCHEM_CACTVS_SUBSKEYS>
AAADccBzoAAAAAAAAAAAAAAAAAAAAAAAAAAwAAAAAAAAAAABAAAAHgAQCAAADAyBmAAwBoBAAgCQBiRCQACiAAAgIAAIiAAGCIgIpiKCERKAcAAkwBEImAeAwAAOIAAAAAAAAABAAAAAAAAAAAAAAAAAAA==

> <PUBCHEM_IUPAC_OPENEYE_NAME>
(3Z)-2-amino-4-(4-hydroxyphenyl)buta-1,3-diene-1,1,3-tricarbonitrile

> <PUBCHEM_IUPAC_CAS_NAME>
(3Z)-2-amino-4-(4-hydroxyphenyl)buta-1,3-diene-1,1,3-tricarbonitrile

> <PUBCHEM_IUPAC_NAME>
(3Z)-2-amino-4-(4-hydroxyphenyl)buta-1,3-diene-1,1,3-tricarbonitrile

> <PUBCHEM_IUPAC_SYSTEMATIC_NAME>
(3Z)-2-azanyl-4-(4-hydroxyphenyl)buta-1,3-diene-1,1,3-tricarbonitrile

> <PUBCHEM_IUPAC_TRADITIONAL_NAME>
(3Z)-2-amino-4-(4-hydroxyphenyl)buta-1,3-diene-1,1,3-tricarbonitrile

> <PUBCHEM_IUPAC_INCHI>
InChI=1S/C13H8N4O/c14-6-10(13(17)11(7-15)8-16)5-9-1-3-12(18)4-2-9/h1-5,18H,17H2/b10-5+

> <PUBCHEM_IUPAC_INCHIKEY>
DXVJRTIPBNBLLB-BJMVGYQFSA-N

> <PUBCHEM_XLOGP3_AA>
0.9

> <PUBCHEM_EXACT_MASS>
236.07

> <PUBCHEM_MOLECULAR_FORMULA>
C13H8N4O

> <PUBCHEM_MOLECULAR_WEIGHT>
236.234

> <PUBCHEM_OPENEYE_CAN_SMILES>
C1=CC(=CC=C1C=C(C#N)C(=C(C#N)C#N)N)O

> <PUBCHEM_OPENEYE_ISO_SMILES>
C1=CC(=CC=C1/C=C(\C#N)/C(=C(C#N)C#N)N)O

> <PUBCHEM_CACTVS_TPSA>
118

> <PUBCHEM_MONOISOTOPIC_WEIGHT>
236.07

> <PUBCHEM_TOTAL_CHARGE>
0

> <PUBCHEM_HEAVY_ATOM_COUNT>
18

> <PUBCHEM_ATOM_DEF_STEREO_COUNT>
0

> <PUBCHEM_ATOM_UDEF_STEREO_COUNT>
0

> <PUBCHEM_BOND_DEF_STEREO_COUNT>
1

> <PUBCHEM_BOND_UDEF_STEREO_COUNT>
0

> <PUBCHEM_ISOTOPIC_ATOM_COUNT>
0

> <PUBCHEM_COMPONENT_COUNT>
1

> <PUBCHEM_CACTVS_TAUTO_COUNT>
7

> <PUBCHEM_COORDINATE_TYPE>
1
5
255

> <PUBCHEM_BONDANNOTATIONS>
10  12  8
11  12  8
6  7  8
6  8  8
7  10  8
8  11  8

$$$$
9859309
  -OEChem-11021605012D

 31 32  0     0  0  0  0  0  0999 V2000
    4.2690    3.2500    0.0000 O   0  0  0  0  0  0  0  0  0  0  0  0
    2.5369   -1.7500    0.0000 O   0  0  0  0  0  0  0  0  0  0  0  0
    3.4030   -3.2500    0.0000 O   0  0  0  0  0  0  0  0  0  0  0  0
    4.2690    1.2500    0.0000 N   0  0  0  0  0  0  0  0  0  0  0  0
    3.4030    1.7500    0.0000 C   0  0  0  0  0  0  0  0  0  0  0  0
    5.1350    1.7500    0.0000 C   0  0  0  0  0  0  0  0  0  0  0  0
    3.4030    2.7500    0.0000 C   0  0  0  0  0  0  0  0  0  0  0  0
    5.1350    2.7500    0.0000 C   0  0  0  0  0  0  0  0  0  0  0  0
    4.2690    0.2500    0.0000 C   0  0  0  0  0  0  0  0  0  0  0  0
    3.4030   -0.2500    0.0000 C   0  0  0  0  0  0  0  0  0  0  0  0
    5.1350   -0.2500    0.0000 C   0  0  0  0  0  0  0  0  0  0  0  0
    3.4030   -1.2500    0.0000 C   0  0  0  0  0  0  0  0  0  0  0  0
    4.2690   -1.7500    0.0000 C   0  0  0  0  0  0  0  0  0  0  0  0
    5.1350   -1.2500    0.0000 C   0  0  0  0  0  0  0  0  0  0  0  0
    4.2690   -2.7500    0.0000 C   0  0  0  0  0  0  0  0  0  0  0  0
    5.1350   -3.2500    0.0000 C   0  0  0  0  0  0  0  0  0  0  0  0
    2.7924    1.8577    0.0000 H   0  0  0  0  0  0  0  0  0  0  0  0
    3.1909    1.1674    0.0000 H   0  0  0  0  0  0  0  0  0  0  0  0
    5.3471    1.1674    0.0000 H   0  0  0  0  0  0  0  0  0  0  0  0
    5.7456    1.8577    0.0000 H   0  0  0  0  0  0  0  0  0  0  0  0
    3.1909    3.3326    0.0000 H   0  0  0  0  0  0  0  0  0  0  0  0
    2.7924    2.6423    0.0000 H   0  0  0  0  0  0  0  0  0  0  0  0
    5.7456    2.6423    0.0000 H   0  0  0  0  0  0  0  0  0  0  0  0
    5.3471    3.3326    0.0000 H   0  0  0  0  0  0  0  0  0  0  0  0
    2.8660    0.0600    0.0000 H   0  0  0  0  0  0  0  0  0  0  0  0
    5.6720    0.0600    0.0000 H   0  0  0  0  0  0  0  0  0  0  0  0
    5.6720   -1.5600    0.0000 H   0  0  0  0  0  0  0  0  0  0  0  0
    2.0000   -1.4400    0.0000 H   0  0  0  0  0  0  0  0  0  0  0  0
    4.8250   -3.7869    0.0000 H   0  0  0  0  0  0  0  0  0  0  0  0
    5.6720   -3.5600    0.0000 H   0  0  0  0  0  0  0  0  0  0  0  0
    5.4450   -2.7131    0.0000 H   0  0  0  0  0  0  0  0  0  0  0  0
  1  7  1  0  0  0  0
  1  8  1  0  0  0  0
  2 12  1  0  0  0  0
  2 28  1  0  0  0  0
  3 15  2  0  0  0  0
  4  5  1  0  0  0  0
  4  6  1  0  0  0  0
  4  9  1  0  0  0  0
  5  7  1  0  0  0  0
  5 17  1  0  0  0  0
  5 18  1  0  0  0  0
  6  8  1  0  0  0  0
  6 19  1  0  0  0  0
  6 20  1  0  0  0  0
  7 21  1  0  0  0  0
  7 22  1  0  0  0  0
  8 23  1  0  0  0  0
  8 24  1  0  0  0  0
  9 10  2  0  0  0  0
  9 11  1  0  0  0  0
 10 12  1  0  0  0  0
 10 25  1  0  0  0  0
 11 14  2  0  0  0  0
 11 26  1  0  0  0  0
 12 13  2  0  0  0  0
 13 14  1  0  0  0  0
 13 15  1  0  0  0  0
 14 27  1  0  0  0  0
 15 16  1  0  0  0  0
 16 29  1  0  0  0  0
 16 30  1  0  0  0  0
 16 31  1  0  0  0  0
M  END
> <PUBCHEM_COMPOUND_CID>
9859309

> <PUBCHEM_COMPOUND_CANONICALIZED>
1

> <PUBCHEM_CACTVS_COMPLEXITY>
251

> <PUBCHEM_CACTVS_HBOND_ACCEPTOR>
4

> <PUBCHEM_CACTVS_HBOND_DONOR>
1

> <PUBCHEM_CACTVS_ROTATABLE_BOND>
2

> <PUBCHEM_CACTVS_SUBSKEYS>
AAADccByMAAAAAAAAAAAAAAAAAAAAAAAAAA8QAAAAAAAAAABAAAAHgAACAAADAzhmAYyxoMABgCIAqRSQACCAAAlIgAIiAEObMgKJjbClZOHcUhm4BnY2YeY2aOeCAAAAgAIAAAQAAAEABAAAAAAAAAAAA==

> <PUBCHEM_IUPAC_OPENEYE_NAME>
1-(2-hydroxy-4-morpholino-phenyl)ethanone

> <PUBCHEM_IUPAC_CAS_NAME>
1-[2-hydroxy-4-(4-morpholinyl)phenyl]ethanone

> <PUBCHEM_IUPAC_NAME>
1-(2-hydroxy-4-morpholin-4-ylphenyl)ethanone

> <PUBCHEM_IUPAC_SYSTEMATIC_NAME>
1-(4-morpholin-4-yl-2-oxidanyl-phenyl)ethanone

> <PUBCHEM_IUPAC_TRADITIONAL_NAME>
1-(2-hydroxy-4-morpholino-phenyl)ethanone

> <PUBCHEM_IUPAC_INCHI>
InChI=1S/C12H15NO3/c1-9(14)11-3-2-10(8-12(11)15)13-4-6-16-7-5-13/h2-3,8,15H,4-7H2,1H3

> <PUBCHEM_IUPAC_INCHIKEY>
YHKSBKQXCWHTQL-UHFFFAOYSA-N

> <PUBCHEM_XLOGP3>
1.8

> <PUBCHEM_EXACT_MASS>
221.105

> <PUBCHEM_MOLECULAR_FORMULA>
C12H15NO3

> <PUBCHEM_MOLECULAR_WEIGHT>
221.256

> <PUBCHEM_OPENEYE_CAN_SMILES>
CC(=O)C1=C(C=C(C=C1)N2CCOCC2)O

> <PUBCHEM_OPENEYE_ISO_SMILES>
CC(=O)C1=C(C=C(C=C1)N2CCOCC2)O

> <PUBCHEM_CACTVS_TPSA>
49.8

> <PUBCHEM_MONOISOTOPIC_WEIGHT>
221.105

> <PUBCHEM_TOTAL_CHARGE>
0

> <PUBCHEM_HEAVY_ATOM_COUNT>
16

> <PUBCHEM_ATOM_DEF_STEREO_COUNT>
0

> <PUBCHEM_ATOM_UDEF_STEREO_COUNT>
0

> <PUBCHEM_BOND_DEF_STEREO_COUNT>
0

> <PUBCHEM_BOND_UDEF_STEREO_COUNT>
0

> <PUBCHEM_ISOTOPIC_ATOM_COUNT>
0

> <PUBCHEM_COMPONENT_COUNT>
1

> <PUBCHEM_CACTVS_TAUTO_COUNT>
9

> <PUBCHEM_COORDINATE_TYPE>
1
5
255

> <PUBCHEM_BONDANNOTATIONS>
10  12  8
11  14  8
12  13  8
13  14  8
9  10  8
9  11  8

$$$$
449241
  -OEChem-11021605012D

 47 49  0     0  0  0  0  0  0999 V2000
    2.0000   -5.2673    0.0000 Br  0  0  0  0  0  0  0  0  0  0  0  0
    8.0622    2.2327    0.0000 S   0  0  0  0  0  0  0  0  0  0  0  0
    7.0622    2.2327    0.0000 O   0  0  0  0  0  0  0  0  0  0  0  0
    9.0622    2.2327    0.0000 O   0  0  0  0  0  0  0  0  0  0  0  0
    8.0622    1.2327    0.0000 N   0  0  0  0  0  0  0  0  0  0  0  0
    6.3301   -0.7673    0.0000 N   0  0  0  0  0  0  0  0  0  0  0  0
   10.7282    4.7535    0.0000 N   0  0  0  0  0  0  0  0  0  0  0  0
    8.0622    3.2327    0.0000 C   0  0  0  0  0  0  0  0  0  0  0  0
    7.1962    0.7327    0.0000 C   0  0  0  0  0  0  0  0  0  0  0  0
    8.9282    3.7327    0.0000 C   0  0  0  0  0  0  0  0  0  0  0  0
    7.1962   -0.2673    0.0000 C   0  0  0  0  0  0  0  0  0  0  0  0
    8.9282    4.7327    0.0000 C   0  0  0  0  0  0  0  0  0  0  0  0
    7.1962    3.7327    0.0000 C   0  0  0  0  0  0  0  0  0  0  0  0
    8.0622    5.2327    0.0000 C   0  0  0  0  0  0  0  0  0  0  0  0
    9.8222    3.1980    0.0000 C   0  0  0  0  0  0  0  0  0  0  0  0
    7.1962    4.7327    0.0000 C   0  0  0  0  0  0  0  0  0  0  0  0
    6.3301   -1.7673    0.0000 C   0  0  0  0  0  0  0  0  0  0  0  0
    9.8222    5.2673    0.0000 C   0  0  0  0  0  0  0  0  0  0  0  0
   10.7282    3.7118    0.0000 C   0  0  0  0  0  0  0  0  0  0  0  0
    5.4641   -2.2673    0.0000 C   0  0  0  0  0  0  0  0  0  0  0  0
    5.4641   -3.2673    0.0000 C   0  0  0  0  0  0  0  0  0  0  0  0
    4.5981   -3.7673    0.0000 C   0  0  0  0  0  0  0  0  0  0  0  0
    4.5981   -4.7673    0.0000 C   0  0  0  0  0  0  0  0  0  0  0  0
    3.7320   -3.2673    0.0000 C   0  0  0  0  0  0  0  0  0  0  0  0
    3.7320   -5.2673    0.0000 C   0  0  0  0  0  0  0  0  0  0  0  0
    2.8660   -3.7673    0.0000 C   0  0  0  0  0  0  0  0  0  0  0  0
    2.8660   -4.7673    0.0000 C   0  0  0  0  0  0  0  0  0  0  0  0
    6.9841    1.3153    0.0000 H   0  0  0  0  0  0  0  0  0  0  0  0
    6.5856    0.6250    0.0000 H   0  0  0  0  0  0  0  0  0  0  0  0
    8.5991    0.9227    0.0000 H   0  0  0  0  0  0  0  0  0  0  0  0
    7.4082   -0.8499    0.0000 H   0  0  0  0  0  0  0  0  0  0  0  0
    7.8067   -0.1597    0.0000 H   0  0  0  0  0  0  0  0  0  0  0  0
    6.6592    3.4227    0.0000 H   0  0  0  0  0  0  0  0  0  0  0  0
    5.7932   -0.4573    0.0000 H   0  0  0  0  0  0  0  0  0  0  0  0
    8.0622    5.8527    0.0000 H   0  0  0  0  0  0  0  0  0  0  0  0
    9.8150    2.5780    0.0000 H   0  0  0  0  0  0  0  0  0  0  0  0
    6.6592    5.0427    0.0000 H   0  0  0  0  0  0  0  0  0  0  0  0
    6.5422   -2.3499    0.0000 H   0  0  0  0  0  0  0  0  0  0  0  0
    6.9407   -1.6597    0.0000 H   0  0  0  0  0  0  0  0  0  0  0  0
    9.8150    5.8873    0.0000 H   0  0  0  0  0  0  0  0  0  0  0  0
   11.2639    3.3998    0.0000 H   0  0  0  0  0  0  0  0  0  0  0  0
    4.9272   -1.9573    0.0000 H   0  0  0  0  0  0  0  0  0  0  0  0
    6.0010   -3.5773    0.0000 H   0  0  0  0  0  0  0  0  0  0  0  0
    5.1350   -5.0773    0.0000 H   0  0  0  0  0  0  0  0  0  0  0  0
    3.7320   -2.6473    0.0000 H   0  0  0  0  0  0  0  0  0  0  0  0
    3.7320   -5.8873    0.0000 H   0  0  0  0  0  0  0  0  0  0  0  0
    2.3291   -3.4573    0.0000 H   0  0  0  0  0  0  0  0  0  0  0  0
  1 27  1  0  0  0  0
  2  3  2  0  0  0  0
  2  4  2  0  0  0  0
  2  5  1  0  0  0  0
  2  8  1  0  0  0  0
  5  9  1  0  0  0  0
  5 30  1  0  0  0  0
  6 11  1  0  0  0  0
  6 17  1  0  0  0  0
  6 34  1  0  0  0  0
  7 18  2  0  0  0  0
  7 19  1  0  0  0  0
  8 10  1  0  0  0  0
  8 13  2  0  0  0  0
  9 11  1  0  0  0  0
  9 28  1  0  0  0  0
  9 29  1  0  0  0  0
 10 12  2  0  0  0  0
 10 15  1  0  0  0  0
 11 31  1  0  0  0  0
 11 32  1  0  0  0  0
 12 14  1  0  0  0  0
 12 18  1  0  0  0  0
 13 16  1  0  0  0  0
 13 33  1  0  0  0  0
 14 16  2  0  0  0  0
 14 35  1  0  0  0  0
 15 19  2  0  0  0  0
 15 36  1  0  0  0  0
 16 37  1  0  0  0  0
 17 20  1  0  0  0  0
 17 38  1  0  0  0  0
 17 39  1  0  0  0  0
 18 40  1  0  0  0  0
 19 41  1  0  0  0  0
 20 21  2  0  0  0  0
 20 42  1  0  0  0  0
 21 22  1  0  0  0  0
 21 43  1  0  0  0  0
 22 23  2  0  0  0  0
 22 24  1  0  0  0  0
 23 25  1  0  0  0  0
 23 44  1  0  0  0  0
 24 26  2  0  0  0  0
 24 45  1  0  0  0  0
 25 27  2  0  0  0  0
 25 46  1  0  0  0  0
 26 27  1  0  0  0  0
 26 47  1  0  0  0  0
M  END
> <PUBCHEM_COMPOUND_CID>
449241

> <PUBCHEM_COMPOUND_CANONICALIZED>
1

> <PUBCHEM_CACTVS_COMPLEXITY>
570

> <PUBCHEM_CACTVS_HBOND_ACCEPTOR>
5

> <PUBCHEM_CACTVS_HBOND_DONOR>
2

> <PUBCHEM_CACTVS_ROTATABLE_BOND>
8

> <PUBCHEM_CACTVS_SUBSKEYS>
AAADceB7MABAEAAAAAAAAAAAAAAAAAAAAAA8YIAAAAAAAACx9AAAHARQQAABrADBWgQ8gdLIEAKgAjBnRHDCgDAxAiQI2Lg4ZLgIYOLAkZGUIAhgkADIyhcQgIAOggAAgAAUAAAEAAEAACgAAAAAAAAAAA==

> <PUBCHEM_IUPAC_OPENEYE_NAME>
N-[2-[[(E)-3-(4-bromophenyl)allyl]amino]ethyl]isoquinoline-5-sulfonamide

> <PUBCHEM_IUPAC_CAS_NAME>
N-[2-[[(E)-3-(4-bromophenyl)prop-2-enyl]amino]ethyl]-5-isoquinolinesulfonamide

> <PUBCHEM_IUPAC_NAME>
N-[2-[[(E)-3-(4-bromophenyl)prop-2-enyl]amino]ethyl]isoquinoline-5-sulfonamide

> <PUBCHEM_IUPAC_SYSTEMATIC_NAME>
N-[2-[[(E)-3-(4-bromophenyl)prop-2-enyl]amino]ethyl]isoquinoline-5-sulfonamide

> <PUBCHEM_IUPAC_TRADITIONAL_NAME>
N-[2-[[(E)-3-(4-bromophenyl)allyl]amino]ethyl]isoquinoline-5-sulfonamide

> <PUBCHEM_IUPAC_INCHI>
InChI=1S/C20H20BrN3O2S/c21-18-8-6-16(7-9-18)3-2-11-22-13-14-24-27(25,26)20-5-1-4-17-15-23-12-10-19(17)20/h1-10,12,15,22,24H,11,13-14H2/b3-2+

> <PUBCHEM_IUPAC_INCHIKEY>
ZKZXNDJNWUTGDK-NSCUHMNNSA-N

> <PUBCHEM_XLOGP3_AA>
3.5

> <PUBCHEM_EXACT_MASS>
445.046

> <PUBCHEM_MOLECULAR_FORMULA>
C20H20BrN3O2S

> <PUBCHEM_MOLECULAR_WEIGHT>
446.363

> <PUBCHEM_OPENEYE_CAN_SMILES>
C1=CC2=C(C=CN=C2)C(=C1)S(=O)(=O)NCCNCC=CC3=CC=C(C=C3)Br

> <PUBCHEM_OPENEYE_ISO_SMILES>
C1=CC2=C(C=CN=C2)C(=C1)S(=O)(=O)NCCNC/C=C/C3=CC=C(C=C3)Br

> <PUBCHEM_CACTVS_TPSA>
79.5

> <PUBCHEM_MONOISOTOPIC_WEIGHT>
445.046

> <PUBCHEM_TOTAL_CHARGE>
0

> <PUBCHEM_HEAVY_ATOM_COUNT>
27

> <PUBCHEM_ATOM_DEF_STEREO_COUNT>
0

> <PUBCHEM_ATOM_UDEF_STEREO_COUNT>
0

> <PUBCHEM_BOND_DEF_STEREO_COUNT>
1

> <PUBCHEM_BOND_UDEF_STEREO_COUNT>
0

> <PUBCHEM_ISOTOPIC_ATOM_COUNT>
0

> <PUBCHEM_COMPONENT_COUNT>
1

> <PUBCHEM_CACTVS_TAUTO_COUNT>
1

> <PUBCHEM_COORDINATE_TYPE>
1
5
255

> <PUBCHEM_BONDANNOTATIONS>
10  12  8
10  15  8
12  14  8
12  18  8
13  16  8
14  16  8
15  19  8
22  23  8
22  24  8
23  25  8
24  26  8
25  27  8
26  27  8
7  18  8
7  19  8
8  10  8
8  13  8

$$$$
9549299
  -OEChem-11021605012D

 48 51  0     0  0  0  0  0  0999 V2000
    2.0000   -2.5670    0.0000 F   0  0  0  0  0  0  0  0  0  0  0  0
    3.3660   -2.9330    0.0000 F   0  0  0  0  0  0  0  0  0  0  0  0
    2.3660   -1.2010    0.0000 F   0  0  0  0  0  0  0  0  0  0  0  0
   12.3923    2.4330    0.0000 O   0  0  0  0  0  0  0  0  0  0  0  0
   11.5263    0.9330    0.0000 N   0  0  0  0  0  0  0  0  0  0  0  0
    8.0622    0.9330    0.0000 N   0  0  0  0  0  0  0  0  0  0  0  0
    4.5981    0.9330    0.0000 N   0  0  0  0  0  0  0  0  0  0  0  0
    7.1962    2.4330    0.0000 N   0  0  0  0  0  0  0  0  0  0  0  0
    5.4641    2.4330    0.0000 N   0  0  0  0  0  0  0  0  0  0  0  0
   13.2583    0.9330    0.0000 C   0  0  0  0  0  0  0  0  0  0  0  0
   13.7583    0.0670    0.0000 C   0  0  0  0  0  0  0  0  0  0  0  0
   14.2583    0.9330    0.0000 C   0  0  0  0  0  0  0  0  0  0  0  0
   12.3923    1.4330    0.0000 C   0  0  0  0  0  0  0  0  0  0  0  0
   10.6603    1.4330    0.0000 C   0  0  0  0  0  0  0  0  0  0  0  0
    9.7942    0.9330    0.0000 C   0  0  0  0  0  0  0  0  0  0  0  0
   10.6603    2.4330    0.0000 C   0  0  0  0  0  0  0  0  0  0  0  0
    8.9282    1.4330    0.0000 C   0  0  0  0  0  0  0  0  0  0  0  0
    9.7942    2.9330    0.0000 C   0  0  0  0  0  0  0  0  0  0  0  0
    8.9282    2.4330    0.0000 C   0  0  0  0  0  0  0  0  0  0  0  0
    7.1962    1.4330    0.0000 C   0  0  0  0  0  0  0  0  0  0  0  0
    4.5981   -0.0670    0.0000 C   0  0  0  0  0  0  0  0  0  0  0  0
    6.3301    0.9330    0.0000 C   0  0  0  0  0  0  0  0  0  0  0  0
    5.4641    1.4330    0.0000 C   0  0  0  0  0  0  0  0  0  0  0  0
    3.7320   -1.5670    0.0000 C   0  0  0  0  0  0  0  0  0  0  0  0
    3.7320   -0.5670    0.0000 C   0  0  0  0  0  0  0  0  0  0  0  0
    5.4641   -0.5670    0.0000 C   0  0  0  0  0  0  0  0  0  0  0  0
    4.5981   -2.0670    0.0000 C   0  0  0  0  0  0  0  0  0  0  0  0
    5.4641   -1.5670    0.0000 C   0  0  0  0  0  0  0  0  0  0  0  0
    2.8660   -2.0670    0.0000 C   0  0  0  0  0  0  0  0  0  0  0  0
    6.3301    2.9330    0.0000 C   0  0  0  0  0  0  0  0  0  0  0  0
   13.4188    1.5319    0.0000 H   0  0  0  0  0  0  0  0  0  0  0  0
   13.2834   -0.3315    0.0000 H   0  0  0  0  0  0  0  0  0  0  0  0
   14.2333   -0.3315    0.0000 H   0  0  0  0  0  0  0  0  0  0  0  0
   14.8409    0.7210    0.0000 H   0  0  0  0  0  0  0  0  0  0  0  0
   14.3660    1.5436    0.0000 H   0  0  0  0  0  0  0  0  0  0  0  0
   11.5263    0.3130    0.0000 H   0  0  0  0  0  0  0  0  0  0  0  0
    9.7942    0.3130    0.0000 H   0  0  0  0  0  0  0  0  0  0  0  0
   11.1972    2.7430    0.0000 H   0  0  0  0  0  0  0  0  0  0  0  0
    9.7942    3.5530    0.0000 H   0  0  0  0  0  0  0  0  0  0  0  0
    8.3913    2.7430    0.0000 H   0  0  0  0  0  0  0  0  0  0  0  0
    8.0622    0.3130    0.0000 H   0  0  0  0  0  0  0  0  0  0  0  0
    6.3301    0.3130    0.0000 H   0  0  0  0  0  0  0  0  0  0  0  0
    4.0611    1.2430    0.0000 H   0  0  0  0  0  0  0  0  0  0  0  0
    3.1951   -0.2570    0.0000 H   0  0  0  0  0  0  0  0  0  0  0  0
    6.0010   -0.2570    0.0000 H   0  0  0  0  0  0  0  0  0  0  0  0
    4.5981   -2.6870    0.0000 H   0  0  0  0  0  0  0  0  0  0  0  0
    6.0010   -1.8770    0.0000 H   0  0  0  0  0  0  0  0  0  0  0  0
    6.3301    3.5530    0.0000 H   0  0  0  0  0  0  0  0  0  0  0  0
  1 29  1  0  0  0  0
  2 29  1  0  0  0  0
  3 29  1  0  0  0  0
  4 13  2  0  0  0  0
  5 13  1  0  0  0  0
  5 14  1  0  0  0  0
  5 36  1  0  0  0  0
  6 17  1  0  0  0  0
  6 20  1  0  0  0  0
  6 41  1  0  0  0  0
  7 21  1  0  0  0  0
  7 23  1  0  0  0  0
  7 43  1  0  0  0  0
  8 20  2  0  0  0  0
  8 30  1  0  0  0  0
  9 23  1  0  0  0  0
  9 30  2  0  0  0  0
 10 11  1  0  0  0  0
 10 12  1  0  0  0  0
 10 13  1  0  0  0  0
 10 31  1  0  0  0  0
 11 12  1  0  0  0  0
 11 32  1  0  0  0  0
 11 33  1  0  0  0  0
 12 34  1  0  0  0  0
 12 35  1  0  0  0  0
 14 15  1  0  0  0  0
 14 16  2  0  0  0  0
 15 17  2  0  0  0  0
 15 37  1  0  0  0  0
 16 18  1  0  0  0  0
 16 38  1  0  0  0  0
 17 19  1  0  0  0  0
 18 19  2  0  0  0  0
 18 39  1  0  0  0  0
 19 40  1  0  0  0  0
 20 22  1  0  0  0  0
 21 25  1  0  0  0  0
 21 26  2  0  0  0  0
 22 23  2  0  0  0  0
 22 42  1  0  0  0  0
 24 25  2  0  0  0  0
 24 27  1  0  0  0  0
 24 29  1  0  0  0  0
 25 44  1  0  0  0  0
 26 28  1  0  0  0  0
 26 45  1  0  0  0  0
 27 28  2  0  0  0  0
 27 46  1  0  0  0  0
 28 47  1  0  0  0  0
 30 48  1  0  0  0  0
M  END
> <PUBCHEM_COMPOUND_CID>
9549299

> <PUBCHEM_COMPOUND_CANONICALIZED>
1

> <PUBCHEM_CACTVS_COMPLEXITY>
586

> <PUBCHEM_CACTVS_HBOND_ACCEPTOR>
8

> <PUBCHEM_CACTVS_HBOND_DONOR>
3

> <PUBCHEM_CACTVS_ROTATABLE_BOND>
6

> <PUBCHEM_CACTVS_SUBSKEYS>
AAADceB7oYAAAAAAAAAAAAAAGAAAAAAAAAA8YIAAAAAAAAAB0AAAHwAQAAAADQiBmhQ18JbIEACoAidzdACCgCkxAqAJ2CE4ZJiIKHLA2dGEJAholALIyCcQgAAOAAAAQAQAAAAAAACACAAAAAAAAAAAAA==

> <PUBCHEM_IUPAC_OPENEYE_NAME>
N-[3-[[6-[3-(trifluoromethyl)anilino]pyrimidin-4-yl]amino]phenyl]cyclopropanecarboxamide

> <PUBCHEM_IUPAC_CAS_NAME>
N-[3-[[6-[3-(trifluoromethyl)anilino]-4-pyrimidinyl]amino]phenyl]cyclopropanecarboxamide

> <PUBCHEM_IUPAC_NAME>
N-[3-[[6-[3-(trifluoromethyl)anilino]pyrimidin-4-yl]amino]phenyl]cyclopropanecarboxamide

> <PUBCHEM_IUPAC_SYSTEMATIC_NAME>
N-[3-[[6-[[3-(trifluoromethyl)phenyl]amino]pyrimidin-4-yl]amino]phenyl]cyclopropanecarboxamide

> <PUBCHEM_IUPAC_TRADITIONAL_NAME>
N-[3-[[6-[3-(trifluoromethyl)anilino]pyrimidin-4-yl]amino]phenyl]cyclopropanecarboxamide

> <PUBCHEM_IUPAC_INCHI>
InChI=1S/C21H18F3N5O/c22-21(23,24)14-3-1-4-15(9-14)27-18-11-19(26-12-25-18)28-16-5-2-6-17(10-16)29-20(30)13-7-8-13/h1-6,9-13H,7-8H2,(H,29,30)(H2,25,26,27,28)

> <PUBCHEM_IUPAC_INCHIKEY>
YOHYSYJDKVYCJI-UHFFFAOYSA-N

> <PUBCHEM_XLOGP3_AA>
4.5

> <PUBCHEM_EXACT_MASS>
413.146

> <PUBCHEM_MOLECULAR_FORMULA>
C21H18F3N5O

> <PUBCHEM_MOLECULAR_WEIGHT>
413.404

> <PUBCHEM_OPENEYE_CAN_SMILES>
C1CC1C(=O)NC2=CC=CC(=C2)NC3=NC=NC(=C3)NC4=CC=CC(=C4)C(F)(F)F

> <PUBCHEM_OPENEYE_ISO_SMILES>
C1CC1C(=O)NC2=CC=CC(=C2)NC3=NC=NC(=C3)NC4=CC=CC(=C4)C(F)(F)F

> <PUBCHEM_CACTVS_TPSA>
78.9

> <PUBCHEM_MONOISOTOPIC_WEIGHT>
413.146

> <PUBCHEM_TOTAL_CHARGE>
0

> <PUBCHEM_HEAVY_ATOM_COUNT>
30

> <PUBCHEM_ATOM_DEF_STEREO_COUNT>
0

> <PUBCHEM_ATOM_UDEF_STEREO_COUNT>
0

> <PUBCHEM_BOND_DEF_STEREO_COUNT>
0

> <PUBCHEM_BOND_UDEF_STEREO_COUNT>
0

> <PUBCHEM_ISOTOPIC_ATOM_COUNT>
0

> <PUBCHEM_COMPONENT_COUNT>
1

> <PUBCHEM_CACTVS_TAUTO_COUNT>
27

> <PUBCHEM_COORDINATE_TYPE>
1
5
255

> <PUBCHEM_BONDANNOTATIONS>
14  15  8
14  16  8
15  17  8
16  18  8
17  19  8
18  19  8
20  22  8
21  25  8
21  26  8
22  23  8
24  25  8
24  27  8
26  28  8
27  28  8
8  20  8
8  30  8
9  23  8
9  30  8

$$$$
3004085
  -OEChem-11021605012D

 32 34  0     0  0  0  0  0  0999 V2000
    4.6660   -2.0000    0.0000 S   0  0  0  0  0  0  0  0  0  0  0  0
    6.4144   -2.0346    0.0000 O   0  0  0  0  0  0  0  0  0  0  0  0
    6.4144    2.0346    0.0000 O   0  0  0  0  0  0  0  0  0  0  0  0
    4.6660    1.0000    0.0000 N   0  0  0  0  0  0  0  0  0  0  0  0
    5.5321   -0.5000    0.0000 C   0  0  0  0  0  0  0  0  0  0  0  0
    5.5321    0.5000    0.0000 C   0  0  0  0  0  0  0  0  0  0  0  0
    3.8000   -0.5000    0.0000 C   0  0  0  0  0  0  0  0  0  0  0  0
    3.8000    0.5000    0.0000 C   0  0  0  0  0  0  0  0  0  0  0  0
    4.6660   -1.0000    0.0000 C   0  0  0  0  0  0  0  0  0  0  0  0
    6.4260   -1.0347    0.0000 C   0  0  0  0  0  0  0  0  0  0  0  0
    6.4260    1.0347    0.0000 C   0  0  0  0  0  0  0  0  0  0  0  0
    2.9061   -1.0347    0.0000 C   0  0  0  0  0  0  0  0  0  0  0  0
    2.9061    1.0347    0.0000 C   0  0  0  0  0  0  0  0  0  0  0  0
    7.3321   -0.5208    0.0000 C   0  0  0  0  0  0  0  0  0  0  0  0
    7.3321    0.5208    0.0000 C   0  0  0  0  0  0  0  0  0  0  0  0
    2.0000   -0.5208    0.0000 C   0  0  0  0  0  0  0  0  0  0  0  0
    2.0000    0.5208    0.0000 C   0  0  0  0  0  0  0  0  0  0  0  0
    7.2746   -2.5446    0.0000 C   0  0  0  0  0  0  0  0  0  0  0  0
    7.2746    2.5446    0.0000 C   0  0  0  0  0  0  0  0  0  0  0  0
    4.6660    1.6200    0.0000 H   0  0  0  0  0  0  0  0  0  0  0  0
    7.8678   -0.8329    0.0000 H   0  0  0  0  0  0  0  0  0  0  0  0
    7.8678    0.8329    0.0000 H   0  0  0  0  0  0  0  0  0  0  0  0
    2.9132   -1.6546    0.0000 H   0  0  0  0  0  0  0  0  0  0  0  0
    2.9132    1.6546    0.0000 H   0  0  0  0  0  0  0  0  0  0  0  0
    1.4643   -0.8329    0.0000 H   0  0  0  0  0  0  0  0  0  0  0  0
    1.4643    0.8329    0.0000 H   0  0  0  0  0  0  0  0  0  0  0  0
    6.9584   -3.0779    0.0000 H   0  0  0  0  0  0  0  0  0  0  0  0
    7.8079   -2.8608    0.0000 H   0  0  0  0  0  0  0  0  0  0  0  0
    7.5908   -2.0113    0.0000 H   0  0  0  0  0  0  0  0  0  0  0  0
    7.5908    2.0113    0.0000 H   0  0  0  0  0  0  0  0  0  0  0  0
    7.8079    2.8608    0.0000 H   0  0  0  0  0  0  0  0  0  0  0  0
    6.9584    3.0779    0.0000 H   0  0  0  0  0  0  0  0  0  0  0  0
  1  9  2  0  0  0  0
  2 10  1  0  0  0  0
  2 18  1  0  0  0  0
  3 11  1  0  0  0  0
  3 19  1  0  0  0  0
  4  6  1  0  0  0  0
  4  8  1  0  0  0  0
  4 20  1  0  0  0  0
  5  6  1  0  0  0  0
  5  9  1  0  0  0  0
  5 10  2  0  0  0  0
  6 11  2  0  0  0  0
  7  8  1  0  0  0  0
  7  9  1  0  0  0  0
  7 12  2  0  0  0  0
  8 13  2  0  0  0  0
 10 14  1  0  0  0  0
 11 15  1  0  0  0  0
 12 16  1  0  0  0  0
 12 23  1  0  0  0  0
 13 17  1  0  0  0  0
 13 24  1  0  0  0  0
 14 15  2  0  0  0  0
 14 21  1  0  0  0  0
 15 22  1  0  0  0  0
 16 17  2  0  0  0  0
 16 25  1  0  0  0  0
 17 26  1  0  0  0  0
 18 27  1  0  0  0  0
 18 28  1  0  0  0  0
 18 29  1  0  0  0  0
 19 30  1  0  0  0  0
 19 31  1  0  0  0  0
 19 32  1  0  0  0  0
M  END
> <PUBCHEM_COMPOUND_CID>
3004085

> <PUBCHEM_COMPOUND_CANONICALIZED>
1

> <PUBCHEM_CACTVS_COMPLEXITY>
349

> <PUBCHEM_CACTVS_HBOND_ACCEPTOR>
4

> <PUBCHEM_CACTVS_HBOND_DONOR>
1

> <PUBCHEM_CACTVS_ROTATABLE_BOND>
2

> <PUBCHEM_CACTVS_SUBSKEYS>
AAADccByMABAAAAAAAAAAAAAAAAAAAAAAAA8YIAAAAAAAACxQAAAHgQQAAAADAyB2AIyxoLABACEAiRCQACCCAAhIgAIiAAHbIgOJmLEsZuFMChm0BnY6AfQ0PMOAQABAgAKEAACAAIEABQgAAAAAAAAAA==

> <PUBCHEM_IUPAC_OPENEYE_NAME>
1,4-dimethoxy-10H-acridine-9-thione

> <PUBCHEM_IUPAC_CAS_NAME>
1,4-dimethoxy-10H-acridine-9-thione

> <PUBCHEM_IUPAC_NAME>
1,4-dimethoxy-10H-acridine-9-thione

> <PUBCHEM_IUPAC_SYSTEMATIC_NAME>
1,4-dimethoxy-10H-acridine-9-thione

> <PUBCHEM_IUPAC_TRADITIONAL_NAME>
1,4-dimethoxy-10H-acridine-9-thione

> <PUBCHEM_IUPAC_INCHI>
InChI=1S/C15H13NO2S/c1-17-11-7-8-12(18-2)14-13(11)15(19)9-5-3-4-6-10(9)16-14/h3-8H,1-2H3,(H,16,19)

> <PUBCHEM_IUPAC_INCHIKEY>
KFAKESMKRPNZTM-UHFFFAOYSA-N

> <PUBCHEM_XLOGP3_AA>
3.5

> <PUBCHEM_EXACT_MASS>
271.067

> <PUBCHEM_MOLECULAR_FORMULA>
C15H13NO2S

> <PUBCHEM_MOLECULAR_WEIGHT>
271.334

> <PUBCHEM_OPENEYE_CAN_SMILES>
COC1=C2C(=C(C=C1)OC)NC3=CC=CC=C3C2=S

> <PUBCHEM_OPENEYE_ISO_SMILES>
COC1=C2C(=C(C=C1)OC)NC3=CC=CC=C3C2=S

> <PUBCHEM_CACTVS_TPSA>
62.6

> <PUBCHEM_MONOISOTOPIC_WEIGHT>
271.067

> <PUBCHEM_TOTAL_CHARGE>
0

> <PUBCHEM_HEAVY_ATOM_COUNT>
19

> <PUBCHEM_ATOM_DEF_STEREO_COUNT>
0

> <PUBCHEM_ATOM_UDEF_STEREO_COUNT>
0

> <PUBCHEM_BOND_DEF_STEREO_COUNT>
0

> <PUBCHEM_BOND_UDEF_STEREO_COUNT>
0

> <PUBCHEM_ISOTOPIC_ATOM_COUNT>
0

> <PUBCHEM_COMPONENT_COUNT>
1

> <PUBCHEM_CACTVS_TAUTO_COUNT>
2

> <PUBCHEM_COORDINATE_TYPE>
1
5
255

> <PUBCHEM_BONDANNOTATIONS>
10  14  8
11  15  8
12  16  8
13  17  8
14  15  8
16  17  8
4  6  8
4  8  8
5  10  8
5  6  8
5  9  8
6  11  8
7  12  8
7  8  8
7  9  8
8  13  8

$$$$
5278396
  -OEChem-11021605012D

 44 48  0     0  0  0  0  0  0999 V2000
    4.6660   -1.2649    0.0000 S   0  0  0  0  0  0  0  0  0  0  0  0
    4.6660   -3.2649    0.0000 S   0  0  0  0  0  0  0  0  0  0  0  0
    9.8436    2.8096    0.0000 O   0  0  0  0  0  0  0  0  0  0  0  0
    7.2746    0.2797    0.0000 O   0  0  0  0  0  0  0  0  0  0  0  0
    4.6594    1.7496    0.0000 O   0  0  0  0  0  0  0  0  0  0  0  0
    8.1232    1.7896    0.0000 N   0  0  0  0  0  0  0  0  0  0  0  0
    8.9950    1.2997    0.0000 C   0  0  0  0  0  0  0  0  0  0  0  0
    8.1117    2.7896    0.0000 C   0  0  0  0  0  0  0  0  0  0  0  0
    8.9719    3.2995    0.0000 C   0  0  0  0  0  0  0  0  0  0  0  0
    9.8552    1.8096    0.0000 C   0  0  0  0  0  0  0  0  0  0  0  0
    7.2631    1.2796    0.0000 C   0  0  0  0  0  0  0  0  0  0  0  0
    6.4144   -0.2303    0.0000 C   0  0  0  0  0  0  0  0  0  0  0  0
    6.4260   -1.2302    0.0000 C   0  0  0  0  0  0  0  0  0  0  0  0
    6.3913    1.7696    0.0000 C   0  0  0  0  0  0  0  0  0  0  0  0
    5.5321   -1.7649    0.0000 C   0  0  0  0  0  0  0  0  0  0  0  0
    5.5427    0.2597    0.0000 C   0  0  0  0  0  0  0  0  0  0  0  0
    5.5321   -2.7649    0.0000 C   0  0  0  0  0  0  0  0  0  0  0  0
    5.5311    1.2596    0.0000 C   0  0  0  0  0  0  0  0  0  0  0  0
    7.3321   -1.7441    0.0000 C   0  0  0  0  0  0  0  0  0  0  0  0
    3.8000   -1.7649    0.0000 C   0  0  0  0  0  0  0  0  0  0  0  0
    3.8000   -2.7649    0.0000 C   0  0  0  0  0  0  0  0  0  0  0  0
    6.4260   -3.2995    0.0000 C   0  0  0  0  0  0  0  0  0  0  0  0
    7.3321   -2.7857    0.0000 C   0  0  0  0  0  0  0  0  0  0  0  0
    2.9061   -1.2302    0.0000 C   0  0  0  0  0  0  0  0  0  0  0  0
    2.9061   -3.2995    0.0000 C   0  0  0  0  0  0  0  0  0  0  0  0
    2.0000   -1.7441    0.0000 C   0  0  0  0  0  0  0  0  0  0  0  0
    2.0000   -2.7857    0.0000 C   0  0  0  0  0  0  0  0  0  0  0  0
    8.6020    0.8201    0.0000 H   0  0  0  0  0  0  0  0  0  0  0  0
    9.3990    0.8294    0.0000 H   0  0  0  0  0  0  0  0  0  0  0  0
    7.8929    3.3697    0.0000 H   0  0  0  0  0  0  0  0  0  0  0  0
    7.5024    2.6748    0.0000 H   0  0  0  0  0  0  0  0  0  0  0  0
    9.3649    3.7791    0.0000 H   0  0  0  0  0  0  0  0  0  0  0  0
    8.5679    3.7698    0.0000 H   0  0  0  0  0  0  0  0  0  0  0  0
   10.0740    1.2295    0.0000 H   0  0  0  0  0  0  0  0  0  0  0  0
   10.4645    1.9244    0.0000 H   0  0  0  0  0  0  0  0  0  0  0  0
    6.3841    2.3896    0.0000 H   0  0  0  0  0  0  0  0  0  0  0  0
    5.0094   -0.0565    0.0000 H   0  0  0  0  0  0  0  0  0  0  0  0
    7.8678   -1.4320    0.0000 H   0  0  0  0  0  0  0  0  0  0  0  0
    6.4188   -3.9195    0.0000 H   0  0  0  0  0  0  0  0  0  0  0  0
    7.8678   -3.0978    0.0000 H   0  0  0  0  0  0  0  0  0  0  0  0
    2.9132   -0.6103    0.0000 H   0  0  0  0  0  0  0  0  0  0  0  0
    2.9132   -3.9195    0.0000 H   0  0  0  0  0  0  0  0  0  0  0  0
    1.4643   -1.4320    0.0000 H   0  0  0  0  0  0  0  0  0  0  0  0
    1.4643   -3.0978    0.0000 H   0  0  0  0  0  0  0  0  0  0  0  0
  1 15  1  0  0  0  0
  1 20  1  0  0  0  0
  2 17  1  0  0  0  0
  2 21  1  0  0  0  0
  3  9  1  0  0  0  0
  3 10  1  0  0  0  0
  4 11  1  0  0  0  0
  4 12  1  0  0  0  0
  5 18  2  0  0  0  0
  6  7  1  0  0  0  0
  6  8  1  0  0  0  0
  6 11  1  0  0  0  0
  7 10  1  0  0  0  0
  7 28  1  0  0  0  0
  7 29  1  0  0  0  0
  8  9  1  0  0  0  0
  8 30  1  0  0  0  0
  8 31  1  0  0  0  0
  9 32  1  0  0  0  0
  9 33  1  0  0  0  0
 10 34  1  0  0  0  0
 10 35  1  0  0  0  0
 11 14  2  0  0  0  0
 12 13  1  0  0  0  0
 12 16  2  0  0  0  0
 13 15  2  0  0  0  0
 13 19  1  0  0  0  0
 14 18  1  0  0  0  0
 14 36  1  0  0  0  0
 15 17  1  0  0  0  0
 16 18  1  0  0  0  0
 16 37  1  0  0  0  0
 17 22  2  0  0  0  0
 19 23  2  0  0  0  0
 19 38  1  0  0  0  0
 20 21  1  0  0  0  0
 20 24  2  0  0  0  0
 21 25  2  0  0  0  0
 22 23  1  0  0  0  0
 22 39  1  0  0  0  0
 23 40  1  0  0  0  0
 24 26  1  0  0  0  0
 24 41  1  0  0  0  0
 25 27  1  0  0  0  0
 25 42  1  0  0  0  0
 26 27  2  0  0  0  0
 26 43  1  0  0  0  0
 27 44  1  0  0  0  0
M  END
> <PUBCHEM_COMPOUND_CID>
5278396

> <PUBCHEM_COMPOUND_CANONICALIZED>
1

> <PUBCHEM_CACTVS_COMPLEXITY>
643

> <PUBCHEM_CACTVS_HBOND_ACCEPTOR>
6

> <PUBCHEM_CACTVS_HBOND_DONOR>
0

> <PUBCHEM_CACTVS_ROTATABLE_BOND>
2

> <PUBCHEM_CACTVS_SUBSKEYS>
AAADceB6MABgAAAAAAAAAAAAAAAAAAAAAAA8aIECAAAAAACRQAAAHgQAAAAADATh2AYwAYMABAiIAqBSQAACCAAgKhAIiBgICMgKJiKgMRiLMAAkwAG4qUeAwCAOAAAAgAAEAgAAAAEAAAgEAAAAAAAAAA==

> <PUBCHEM_IUPAC_OPENEYE_NAME>
2-morpholino-6-thianthren-1-yl-pyran-4-one

> <PUBCHEM_IUPAC_CAS_NAME>
2-(4-morpholinyl)-6-(1-thianthrenyl)-4-pyranone

> <PUBCHEM_IUPAC_NAME>
2-morpholin-4-yl-6-thianthren-1-ylpyran-4-one

> <PUBCHEM_IUPAC_SYSTEMATIC_NAME>
2-morpholin-4-yl-6-thianthren-1-yl-pyran-4-one

> <PUBCHEM_IUPAC_TRADITIONAL_NAME>
2-morpholino-6-thianthren-1-yl-pyran-4-one

> <PUBCHEM_IUPAC_INCHI>
InChI=1S/C21H17NO3S2/c23-14-12-16(25-20(13-14)22-8-10-24-11-9-22)15-4-3-7-19-21(15)27-18-6-2-1-5-17(18)26-19/h1-7,12-13H,8-11H2

> <PUBCHEM_IUPAC_INCHIKEY>
XRKYMMUGXMWDAO-UHFFFAOYSA-N

> <PUBCHEM_XLOGP3_AA>
3.9

> <PUBCHEM_EXACT_MASS>
395.065

> <PUBCHEM_MOLECULAR_FORMULA>
C21H17NO3S2

> <PUBCHEM_MOLECULAR_WEIGHT>
395.491

> <PUBCHEM_OPENEYE_CAN_SMILES>
C1COCCN1C2=CC(=O)C=C(O2)C3=C4C(=CC=C3)SC5=CC=CC=C5S4

> <PUBCHEM_OPENEYE_ISO_SMILES>
C1COCCN1C2=CC(=O)C=C(O2)C3=C4C(=CC=C3)SC5=CC=CC=C5S4

> <PUBCHEM_CACTVS_TPSA>
89.4

> <PUBCHEM_MONOISOTOPIC_WEIGHT>
395.065

> <PUBCHEM_TOTAL_CHARGE>
0

> <PUBCHEM_HEAVY_ATOM_COUNT>
27

> <PUBCHEM_ATOM_DEF_STEREO_COUNT>
0

> <PUBCHEM_ATOM_UDEF_STEREO_COUNT>
0

> <PUBCHEM_BOND_DEF_STEREO_COUNT>
0

> <PUBCHEM_BOND_UDEF_STEREO_COUNT>
0

> <PUBCHEM_ISOTOPIC_ATOM_COUNT>
0

> <PUBCHEM_COMPONENT_COUNT>
1

> <PUBCHEM_CACTVS_TAUTO_COUNT>
1

> <PUBCHEM_COORDINATE_TYPE>
1
5
255

> <PUBCHEM_BONDANNOTATIONS>
11  14  8
12  16  8
13  15  8
13  19  8
14  18  8
15  17  8
16  18  8
17  22  8
19  23  8
20  21  8
20  24  8
21  25  8
22  23  8
24  26  8
25  27  8
26  27  8
4  11  8
4  12  8

$$$$
3035817
  -OEChem-11021605012D

 56 63  0     1  0  0  0  0  0999 V2000
    5.3397    2.8707    0.0000 O   0  0  0  0  0  0  0  0  0  0  0  0
    3.1345   -0.8312    0.0000 O   0  0  0  0  0  0  0  0  0  0  0  0
    1.3074    0.3444    0.0000 O   0  0  0  0  0  0  0  0  0  0  0  0
    2.0119   -1.2379    0.0000 O   0  0  0  0  0  0  0  0  0  0  0  0
   11.0537   -0.0099    0.0000 O   0  0  0  0  0  0  0  0  0  0  0  0
    6.2279   -0.4438    0.0000 N   0  0  0  0  0  0  0  0  0  0  0  0
    7.2279    1.2882    0.0000 N   0  0  0  0  0  0  0  0  0  0  0  0
   10.4168   -1.7076    0.0000 N   0  0  0  0  0  0  0  0  0  0  0  0
    4.8619    0.9222    0.0000 C   0  0  2  0  0  0  0  0  0  0  0  0
    3.0299    0.1634    0.0000 C   0  0  1  0  0  0  0  0  0  0  0  0
    4.6031    1.8881    0.0000 C   0  0  1  0  0  0  0  0  0  0  0  0
    2.7711    1.1293    0.0000 C   0  0  0  0  0  0  0  0  0  0  0  0
    7.2279   -0.4438    0.0000 C   0  0  0  0  0  0  0  0  0  0  0  0
    7.7279    0.4222    0.0000 C   0  0  0  0  0  0  0  0  0  0  0  0
    7.7348   -1.3538    0.0000 C   0  0  0  0  0  0  0  0  0  0  0  0
    8.7694    0.4382    0.0000 C   0  0  0  0  0  0  0  0  0  0  0  0
    5.1207   -0.0437    0.0000 C   0  0  0  0  0  0  0  0  0  0  0  0
    6.0820   -1.4269    0.0000 C   0  0  0  0  0  0  0  0  0  0  0  0
    8.0063    1.9061    0.0000 C   0  0  0  0  0  0  0  0  0  0  0  0
    6.9327   -1.9406    0.0000 C   0  0  0  0  0  0  0  0  0  0  0  0
    8.7764   -1.3619    0.0000 C   0  0  0  0  0  0  0  0  0  0  0  0
    9.2972   -0.4598    0.0000 C   0  0  0  0  0  0  0  0  0  0  0  0
    8.8766    1.4263    0.0000 C   0  0  0  0  0  0  0  0  0  0  0  0
    2.1164   -0.2434    0.0000 C   0  0  0  0  0  0  0  0  0  0  0  0
    9.4712   -2.1296    0.0000 C   0  0  0  0  0  0  0  0  0  0  0  0
    5.1678   -1.9127    0.0000 C   0  0  0  0  0  0  0  0  0  0  0  0
   10.3094   -0.6777    0.0000 C   0  0  0  0  0  0  0  0  0  0  0  0
    7.9699    2.9407    0.0000 C   0  0  0  0  0  0  0  0  0  0  0  0
    6.9282   -2.9758    0.0000 C   0  0  0  0  0  0  0  0  0  0  0  0
    9.7708    1.9477    0.0000 C   0  0  0  0  0  0  0  0  0  0  0  0
    5.1395   -2.9475    0.0000 C   0  0  0  0  0  0  0  0  0  0  0  0
    6.0256   -3.4826    0.0000 C   0  0  0  0  0  0  0  0  0  0  0  0
    8.8519    3.4826    0.0000 C   0  0  0  0  0  0  0  0  0  0  0  0
    9.7584    2.9828    0.0000 C   0  0  0  0  0  0  0  0  0  0  0  0
    0.3938   -0.0623    0.0000 C   0  0  0  0  0  0  0  0  0  0  0  0
    4.3831    2.7091    0.0000 H   0  0  0  0  0  0  0  0  0  0  0  0
    2.1798    0.9428    0.0000 H   0  0  0  0  0  0  0  0  0  0  0  0
    2.5591    1.7119    0.0000 H   0  0  0  0  0  0  0  0  0  0  0  0
    5.7196    0.1167    0.0000 H   0  0  0  0  0  0  0  0  0  0  0  0
    5.2812   -0.6426    0.0000 H   0  0  0  0  0  0  0  0  0  0  0  0
    4.5218   -0.2042    0.0000 H   0  0  0  0  0  0  0  0  0  0  0  0
    3.7009   -1.0833    0.0000 H   0  0  0  0  0  0  0  0  0  0  0  0
    9.7820   -2.6661    0.0000 H   0  0  0  0  0  0  0  0  0  0  0  0
    8.9704   -2.4950    0.0000 H   0  0  0  0  0  0  0  0  0  0  0  0
    4.6408   -1.5861    0.0000 H   0  0  0  0  0  0  0  0  0  0  0  0
    7.4236    3.2338    0.0000 H   0  0  0  0  0  0  0  0  0  0  0  0
    7.4626   -3.2902    0.0000 H   0  0  0  0  0  0  0  0  0  0  0  0
   10.3103    1.6421    0.0000 H   0  0  0  0  0  0  0  0  0  0  0  0
   10.9537   -2.0176    0.0000 H   0  0  0  0  0  0  0  0  0  0  0  0
    4.5954   -3.2448    0.0000 H   0  0  0  0  0  0  0  0  0  0  0  0
    6.0158   -4.1026    0.0000 H   0  0  0  0  0  0  0  0  0  0  0  0
    8.8373    4.1025    0.0000 H   0  0  0  0  0  0  0  0  0  0  0  0
   10.2904    3.3013    0.0000 H   0  0  0  0  0  0  0  0  0  0  0  0
    0.6460   -0.6287    0.0000 H   0  0  0  0  0  0  0  0  0  0  0  0
   -0.1726   -0.3145    0.0000 H   0  0  0  0  0  0  0  0  0  0  0  0
    0.1416    0.5041    0.0000 H   0  0  0  0  0  0  0  0  0  0  0  0
  1  9  1  0  0  0  0
  1 11  1  0  0  0  0
 10  2  1  6  0  0  0
  2 42  1  0  0  0  0
  3 24  1  0  0  0  0
  3 35  1  0  0  0  0
  4 24  2  0  0  0  0
  5 27  2  0  0  0  0
  6  9  1  0  0  0  0
  6 13  1  0  0  0  0
  6 18  1  0  0  0  0
  7 11  1  0  0  0  0
  7 14  1  0  0  0  0
  7 19  1  0  0  0  0
  8 25  1  0  0  0  0
  8 27  1  0  0  0  0
  8 49  1  0  0  0  0
  9 10  1  0  0  0  0
  9 17  1  1  0  0  0
 10 12  1  0  0  0  0
 10 24  1  0  0  0  0
 11 12  1  0  0  0  0
 11 36  1  6  0  0  0
 12 37  1  0  0  0  0
 12 38  1  0  0  0  0
 13 14  2  0  0  0  0
 13 15  1  0  0  0  0
 14 16  1  0  0  0  0
 15 20  1  0  0  0  0
 15 21  2  0  0  0  0
 16 22  2  0  0  0  0
 16 23  1  0  0  0  0
 17 39  1  0  0  0  0
 17 40  1  0  0  0  0
 17 41  1  0  0  0  0
 18 20  1  0  0  0  0
 18 26  2  0  0  0  0
 19 23  1  0  0  0  0
 19 28  2  0  0  0  0
 20 29  2  0  0  0  0
 21 22  1  0  0  0  0
 21 25  1  0  0  0  0
 22 27  1  0  0  0  0
 23 30  2  0  0  0  0
 25 43  1  0  0  0  0
 25 44  1  0  0  0  0
 26 31  1  0  0  0  0
 26 45  1  0  0  0  0
 28 33  1  0  0  0  0
 28 46  1  0  0  0  0
 29 32  1  0  0  0  0
 29 47  1  0  0  0  0
 30 34  1  0  0  0  0
 30 48  1  0  0  0  0
 31 32  2  0  0  0  0
 31 50  1  0  0  0  0
 32 51  1  0  0  0  0
 33 34  2  0  0  0  0
 33 52  1  0  0  0  0
 34 53  1  0  0  0  0
 35 54  1  0  0  0  0
 35 55  1  0  0  0  0
 35 56  1  0  0  0  0
M  END
> <PUBCHEM_COMPOUND_CID>
3035817

> <PUBCHEM_COMPOUND_CANONICALIZED>
1

> <PUBCHEM_CACTVS_COMPLEXITY>
977

> <PUBCHEM_CACTVS_HBOND_ACCEPTOR>
5

> <PUBCHEM_CACTVS_HBOND_DONOR>
2

> <PUBCHEM_CACTVS_ROTATABLE_BOND>
2

> <PUBCHEM_CACTVS_SUBSKEYS>
AAADceB7OAAAAAAAAAAAAAAAAAAAAWLFiQAwYMAABYAWAFix/gAAHgAQCAAADEzhngYyyPPMFgCoAyXyXAKCgCQlEiAI2KF4dNgLYP7AlZGeYQhnpgDbyQf+icCeyAACQAASACCQAASAACQAQAAAAAAAAA==

> <PUBCHEM_IUPAC_INCHI>
InChI=1S/C27H21N3O5/c1-26-27(33,25(32)34-2)11-18(35-26)29-16-9-5-3-7-13(16)20-21-15(12-28-24(21)31)19-14-8-4-6-10-17(14)30(26)23(19)22(20)29/h3-10,18,33H,11-12H2,1-2H3,(H,28,31)/t18-,26+,27+/m1/s1

> <PUBCHEM_IUPAC_INCHIKEY>
KOZFSFOOLUUIGY-SOLYNIJKSA-N

> <PUBCHEM_XLOGP3_AA>
2.8

> <PUBCHEM_EXACT_MASS>
467.148

> <PUBCHEM_MOLECULAR_FORMULA>
C27H21N3O5

> <PUBCHEM_MOLECULAR_WEIGHT>
467.481

> <PUBCHEM_OPENEYE_CAN_SMILES>
CC12C(CC(O1)N3C4=CC=CC=C4C5=C6C(=C7C8=CC=CC=C8N2C7=C53)CNC6=O)(C(=O)OC)O

> <PUBCHEM_OPENEYE_ISO_SMILES>
C[C@@]12[C@](C[C@@H](O1)N3C4=CC=CC=C4C5=C6C(=C7C8=CC=CC=C8N2C7=C53)CNC6=O)(C(=O)OC)O

> <PUBCHEM_CACTVS_TPSA>
94.7

> <PUBCHEM_MONOISOTOPIC_WEIGHT>
467.148

> <PUBCHEM_TOTAL_CHARGE>
0

> <PUBCHEM_HEAVY_ATOM_COUNT>
35

> <PUBCHEM_ATOM_DEF_STEREO_COUNT>
3

> <PUBCHEM_ATOM_UDEF_STEREO_COUNT>
0

> <PUBCHEM_BOND_DEF_STEREO_COUNT>
0

> <PUBCHEM_BOND_UDEF_STEREO_COUNT>
0

> <PUBCHEM_ISOTOPIC_ATOM_COUNT>
0

> <PUBCHEM_COMPONENT_COUNT>
1

> <PUBCHEM_CACTVS_TAUTO_COUNT>
2

> <PUBCHEM_COORDINATE_TYPE>
1
5
255

> <PUBCHEM_BONDANNOTATIONS>
11  36  6
13  14  8
13  15  8
14  16  8
15  20  8
15  21  8
16  22  8
16  23  8
18  20  8
18  26  8
19  23  8
19  28  8
10  2  6
20  29  8
21  22  8
23  30  8
26  31  8
28  33  8
29  32  8
30  34  8
31  32  8
33  34  8
6  13  8
6  18  8
7  14  8
7  19  8
9  17  5

$$$$
5113385
  -OEChem-11021605012D

 21 24  0     0  0  0  0  0  0999 V2000
    2.0000   -0.0699    0.0000 O   0  0  0  0  0  0  0  0  0  0  0  0
    5.4476    0.3909    0.0000 N   0  0  0  0  0  0  0  0  0  0  0  0
    4.5816    1.8909    0.0000 N   0  0  0  0  0  0  0  0  0  0  0  0
    3.7155    1.3909    0.0000 N   0  0  0  0  0  0  0  0  0  0  0  0
    6.1846    2.0580    0.0000 N   0  0  0  0  0  0  0  0  0  0  0  0
    4.7908    2.8627    0.0000 N   0  0  0  0  0  0  0  0  0  0  0  0
    5.7795    2.9658    0.0000 N   0  0  0  0  0  0  0  0  0  0  0  0
    4.3723   -1.0809    0.0000 C   0  0  0  0  0  0  0  0  0  0  0  0
    4.5816   -0.1091    0.0000 C   0  0  0  0  0  0  0  0  0  0  0  0
    3.3836   -1.1839    0.0000 C   0  0  0  0  0  0  0  0  0  0  0  0
    3.7155    0.3909    0.0000 C   0  0  0  0  0  0  0  0  0  0  0  0
    2.9785   -0.2762    0.0000 C   0  0  0  0  0  0  0  0  0  0  0  0
    4.9931   -1.9096    0.0000 C   0  0  0  0  0  0  0  0  0  0  0  0
    2.9471   -2.1229    0.0000 C   0  0  0  0  0  0  0  0  0  0  0  0
    5.4476    1.3909    0.0000 C   0  0  0  0  0  0  0  0  0  0  0  0
    4.5784   -2.8584    0.0000 C   0  0  0  0  0  0  0  0  0  0  0  0
    3.5485   -2.9658    0.0000 C   0  0  0  0  0  0  0  0  0  0  0  0
    5.6090   -1.8382    0.0000 H   0  0  0  0  0  0  0  0  0  0  0  0
    2.3298   -2.1800    0.0000 H   0  0  0  0  0  0  0  0  0  0  0  0
    4.9444   -3.3590    0.0000 H   0  0  0  0  0  0  0  0  0  0  0  0
    3.2937   -3.5310    0.0000 H   0  0  0  0  0  0  0  0  0  0  0  0
  1 12  2  0  0  0  0
  2  9  2  0  0  0  0
  2 15  1  0  0  0  0
  3  4  1  0  0  0  0
  3  6  1  0  0  0  0
  3 15  1  0  0  0  0
  4 11  2  0  0  0  0
  5  7  1  0  0  0  0
  5 15  2  0  0  0  0
  6  7  2  0  0  0  0
  8  9  1  0  0  0  0
  8 10  1  0  0  0  0
  8 13  2  0  0  0  0
  9 11  1  0  0  0  0
 10 12  1  0  0  0  0
 10 14  2  0  0  0  0
 11 12  1  0  0  0  0
 13 16  1  0  0  0  0
 13 18  1  0  0  0  0
 14 17  1  0  0  0  0
 14 19  1  0  0  0  0
 16 17  2  0  0  0  0
 16 20  1  0  0  0  0
 17 21  1  0  0  0  0
M  END
> <PUBCHEM_COMPOUND_CID>
5113385

> <PUBCHEM_COMPOUND_CANONICALIZED>
1

> <PUBCHEM_CACTVS_COMPLEXITY>
350

> <PUBCHEM_CACTVS_HBOND_ACCEPTOR>
6

> <PUBCHEM_CACTVS_HBOND_DONOR>
0

> <PUBCHEM_CACTVS_ROTATABLE_BOND>
0

> <PUBCHEM_CACTVS_SUBSKEYS>
AAADcYBzoAAAAAAAAAAAAAAAAAAAAeIAAAA8QAAAAAAAAHgB8AAAHgAIAAAADAyBngAxkJYIEACqA6RyZACShC8nEKAdmCGgVNiIaLrAnRGUoYhgiAJIyecciYCOgAAAAAAQAAAAAAAAACAAACAACQAQAA==

> <PUBCHEM_IUPAC_INCHI>
InChI=1S/C10H4N6O/c17-9-6-4-2-1-3-5(6)7-8(9)13-16-10(11-7)12-14-15-16/h1-4H

> <PUBCHEM_IUPAC_INCHIKEY>
DPANHMGWPXVBQI-UHFFFAOYSA-N

> <PUBCHEM_XLOGP3_AA>
0.7

> <PUBCHEM_EXACT_MASS>
224.045

> <PUBCHEM_MOLECULAR_FORMULA>
C10H4N6O

> <PUBCHEM_MOLECULAR_WEIGHT>
224.183

> <PUBCHEM_OPENEYE_CAN_SMILES>
C1=CC=C2C(=C1)C3=NC4=NN=NN4N=C3C2=O

> <PUBCHEM_OPENEYE_ISO_SMILES>
C1=CC=C2C(=C1)C3=NC4=NN=NN4N=C3C2=O

> <PUBCHEM_CACTVS_TPSA>
85.9

> <PUBCHEM_MONOISOTOPIC_WEIGHT>
224.045

> <PUBCHEM_TOTAL_CHARGE>
0

> <PUBCHEM_HEAVY_ATOM_COUNT>
17

> <PUBCHEM_ATOM_DEF_STEREO_COUNT>
0

> <PUBCHEM_ATOM_UDEF_STEREO_COUNT>
0

> <PUBCHEM_BOND_DEF_STEREO_COUNT>
0

> <PUBCHEM_BOND_UDEF_STEREO_COUNT>
0

> <PUBCHEM_ISOTOPIC_ATOM_COUNT>
0

> <PUBCHEM_COMPONENT_COUNT>
1

> <PUBCHEM_CACTVS_TAUTO_COUNT>
1

> <PUBCHEM_COORDINATE_TYPE>
1
5
255

> <PUBCHEM_BONDANNOTATIONS>
10  14  8
13  16  8
14  17  8
16  17  8
2  15  8
2  9  8
3  15  8
3  4  8
3  6  8
4  11  8
5  15  8
5  7  8
6  7  8
8  10  8
8  13  8
9  11  8

$$$$
2048
  -OEChem-11021605012D

 32 34  0     0  0  0  0  0  0999 V2000
    5.4641   -0.2673    0.0000 N   0  0  0  0  0  0  0  0  0  0  0  0
    5.4641    1.7327    0.0000 N   0  0  0  0  0  0  0  0  0  0  0  0
    8.1301    0.2119    0.0000 C   0  0  0  0  0  0  0  0  0  0  0  0
    8.1301    1.2535    0.0000 C   0  0  0  0  0  0  0  0  0  0  0  0
    6.3301    0.2327    0.0000 C   0  0  0  0  0  0  0  0  0  0  0  0
    6.3301    1.2327    0.0000 C   0  0  0  0  0  0  0  0  0  0  0  0
    7.2241   -0.3020    0.0000 C   0  0  0  0  0  0  0  0  0  0  0  0
    7.2241    1.7673    0.0000 C   0  0  0  0  0  0  0  0  0  0  0  0
    4.5981    0.2327    0.0000 C   0  0  0  0  0  0  0  0  0  0  0  0
    8.9942   -0.2915    0.0000 C   0  0  0  0  0  0  0  0  0  0  0  0
    8.9942    1.7568    0.0000 C   0  0  0  0  0  0  0  0  0  0  0  0
    3.7320   -0.2673    0.0000 C   0  0  0  0  0  0  0  0  0  0  0  0
    4.5981    1.2327    0.0000 C   0  0  0  0  0  0  0  0  0  0  0  0
    2.8660    0.2327    0.0000 C   0  0  0  0  0  0  0  0  0  0  0  0
    3.7320   -1.2673    0.0000 C   0  0  0  0  0  0  0  0  0  0  0  0
    2.0000   -0.2673    0.0000 C   0  0  0  0  0  0  0  0  0  0  0  0
    2.8660   -1.7673    0.0000 C   0  0  0  0  0  0  0  0  0  0  0  0
    2.0000   -1.2673    0.0000 C   0  0  0  0  0  0  0  0  0  0  0  0
    7.2169   -0.9220    0.0000 H   0  0  0  0  0  0  0  0  0  0  0  0
    7.2169    2.3873    0.0000 H   0  0  0  0  0  0  0  0  0  0  0  0
    8.6822   -0.8272    0.0000 H   0  0  0  0  0  0  0  0  0  0  0  0
    9.5300   -0.6035    0.0000 H   0  0  0  0  0  0  0  0  0  0  0  0
    9.3063    0.2443    0.0000 H   0  0  0  0  0  0  0  0  0  0  0  0
    9.3063    1.2211    0.0000 H   0  0  0  0  0  0  0  0  0  0  0  0
    9.5300    2.0689    0.0000 H   0  0  0  0  0  0  0  0  0  0  0  0
    8.6822    2.2926    0.0000 H   0  0  0  0  0  0  0  0  0  0  0  0
    4.0611    1.5427    0.0000 H   0  0  0  0  0  0  0  0  0  0  0  0
    2.8660    0.8527    0.0000 H   0  0  0  0  0  0  0  0  0  0  0  0
    4.2690   -1.5773    0.0000 H   0  0  0  0  0  0  0  0  0  0  0  0
    1.4631    0.0427    0.0000 H   0  0  0  0  0  0  0  0  0  0  0  0
    2.8660   -2.3873    0.0000 H   0  0  0  0  0  0  0  0  0  0  0  0
    1.4631   -1.5773    0.0000 H   0  0  0  0  0  0  0  0  0  0  0  0
  1  5  2  0  0  0  0
  1  9  1  0  0  0  0
  2  6  2  0  0  0  0
  2 13  1  0  0  0  0
  3  4  1  0  0  0  0
  3  7  2  0  0  0  0
  3 10  1  0  0  0  0
  4  8  2  0  0  0  0
  4 11  1  0  0  0  0
  5  6  1  0  0  0  0
  5  7  1  0  0  0  0
  6  8  1  0  0  0  0
  7 19  1  0  0  0  0
  8 20  1  0  0  0  0
  9 12  1  0  0  0  0
  9 13  2  0  0  0  0
 10 21  1  0  0  0  0
 10 22  1  0  0  0  0
 10 23  1  0  0  0  0
 11 24  1  0  0  0  0
 11 25  1  0  0  0  0
 11 26  1  0  0  0  0
 12 14  2  0  0  0  0
 12 15  1  0  0  0  0
 13 27  1  0  0  0  0
 14 16  1  0  0  0  0
 14 28  1  0  0  0  0
 15 17  2  0  0  0  0
 15 29  1  0  0  0  0
 16 18  2  0  0  0  0
 16 30  1  0  0  0  0
 17 18  1  0  0  0  0
 17 31  1  0  0  0  0
 18 32  1  0  0  0  0
M  END
> <PUBCHEM_COMPOUND_CID>
2048

> <PUBCHEM_COMPOUND_CANONICALIZED>
1

> <PUBCHEM_CACTVS_COMPLEXITY>
272

> <PUBCHEM_CACTVS_HBOND_ACCEPTOR>
2

> <PUBCHEM_CACTVS_HBOND_DONOR>
0

> <PUBCHEM_CACTVS_ROTATABLE_BOND>
1

> <PUBCHEM_CACTVS_SUBSKEYS>
AAADccB7AAAAAAAAAAAAAAAAAAAAAAAAAAA8YIAAAAAAAACx9AAAHAAAAAAADAjBHgQ+wLIIEACgAzRnRACCgCQxEiAI2CA4dJgIYOLAkZGUIAhggADIyAcQgIAOiAAAQAAQACAQAACAACAAQAAAAAAAAA==

> <PUBCHEM_IUPAC_OPENEYE_NAME>
6,7-dimethyl-2-phenyl-quinoxaline

> <PUBCHEM_IUPAC_CAS_NAME>
6,7-dimethyl-2-phenylquinoxaline

> <PUBCHEM_IUPAC_NAME>
6,7-dimethyl-2-phenylquinoxaline

> <PUBCHEM_IUPAC_SYSTEMATIC_NAME>
6,7-dimethyl-2-phenyl-quinoxaline

> <PUBCHEM_IUPAC_TRADITIONAL_NAME>
6,7-dimethyl-2-phenyl-quinoxaline

> <PUBCHEM_IUPAC_INCHI>
InChI=1S/C16H14N2/c1-11-8-14-15(9-12(11)2)18-16(10-17-14)13-6-4-3-5-7-13/h3-10H,1-2H3

> <PUBCHEM_IUPAC_INCHIKEY>
FQNCLVJEQCJWSU-UHFFFAOYSA-N

> <PUBCHEM_XLOGP3_AA>
3.6

> <PUBCHEM_EXACT_MASS>
234.116

> <PUBCHEM_MOLECULAR_FORMULA>
C16H14N2

> <PUBCHEM_MOLECULAR_WEIGHT>
234.302

> <PUBCHEM_OPENEYE_CAN_SMILES>
CC1=CC2=NC=C(N=C2C=C1C)C3=CC=CC=C3

> <PUBCHEM_OPENEYE_ISO_SMILES>
CC1=CC2=NC=C(N=C2C=C1C)C3=CC=CC=C3

> <PUBCHEM_CACTVS_TPSA>
25.8

> <PUBCHEM_MONOISOTOPIC_WEIGHT>
234.116

> <PUBCHEM_TOTAL_CHARGE>
0

> <PUBCHEM_HEAVY_ATOM_COUNT>
18

> <PUBCHEM_ATOM_DEF_STEREO_COUNT>
0

> <PUBCHEM_ATOM_UDEF_STEREO_COUNT>
0

> <PUBCHEM_BOND_DEF_STEREO_COUNT>
0

> <PUBCHEM_BOND_UDEF_STEREO_COUNT>
0

> <PUBCHEM_ISOTOPIC_ATOM_COUNT>
0

> <PUBCHEM_COMPONENT_COUNT>
1

> <PUBCHEM_CACTVS_TAUTO_COUNT>
1

> <PUBCHEM_COORDINATE_TYPE>
1
5
255

> <PUBCHEM_BONDANNOTATIONS>
1  5  8
1  9  8
12  14  8
12  15  8
14  16  8
15  17  8
16  18  8
17  18  8
2  13  8
2  6  8
3  4  8
3  7  8
4  8  8
5  6  8
5  7  8
6  8  8
9  13  8

$$$$
4709
  -OEChem-11021605012D

 38 40  0     0  0  0  0  0  0999 V2000
    9.7758   -3.0445    0.0000 Br  0  0  0  0  0  0  0  0  0  0  0  0
    3.7320    2.5099    0.0000 O   0  0  0  0  0  0  0  0  0  0  0  0
    8.0785   -0.0247    0.0000 N   0  0  0  0  0  0  0  0  0  0  0  0
    4.5981    1.0099    0.0000 N   0  0  0  0  0  0  0  0  0  0  0  0
    8.0901    3.0445    0.0000 N   0  0  0  0  0  0  0  0  0  0  0  0
    8.9962    1.4891    0.0000 N   0  0  0  0  0  0  0  0  0  0  0  0
    7.1962    1.5099    0.0000 C   0  0  0  0  0  0  0  0  0  0  0  0
    7.1962    2.5099    0.0000 C   0  0  0  0  0  0  0  0  0  0  0  0
    5.4641    1.5099    0.0000 C   0  0  0  0  0  0  0  0  0  0  0  0
    6.3301    1.0099    0.0000 C   0  0  0  0  0  0  0  0  0  0  0  0
    8.0901    0.9752    0.0000 C   0  0  0  0  0  0  0  0  0  0  0  0
    6.3301    3.0099    0.0000 C   0  0  0  0  0  0  0  0  0  0  0  0
    5.4641    2.5099    0.0000 C   0  0  0  0  0  0  0  0  0  0  0  0
    8.9387   -0.5347    0.0000 C   0  0  0  0  0  0  0  0  0  0  0  0
    3.7320    1.5099    0.0000 C   0  0  0  0  0  0  0  0  0  0  0  0
    2.8660    1.0099    0.0000 C   0  0  0  0  0  0  0  0  0  0  0  0
    8.9962    2.5307    0.0000 C   0  0  0  0  0  0  0  0  0  0  0  0
    8.9271   -1.5346    0.0000 C   0  0  0  0  0  0  0  0  0  0  0  0
    9.8105   -0.0447    0.0000 C   0  0  0  0  0  0  0  0  0  0  0  0
    2.0000    1.5099    0.0000 C   0  0  0  0  0  0  0  0  0  0  0  0
    9.7873   -2.0446    0.0000 C   0  0  0  0  0  0  0  0  0  0  0  0
   10.6707   -0.5547    0.0000 C   0  0  0  0  0  0  0  0  0  0  0  0
   10.6591   -1.5547    0.0000 C   0  0  0  0  0  0  0  0  0  0  0  0
    6.3301    0.3899    0.0000 H   0  0  0  0  0  0  0  0  0  0  0  0
    6.3301    3.6299    0.0000 H   0  0  0  0  0  0  0  0  0  0  0  0
    4.9272    2.8199    0.0000 H   0  0  0  0  0  0  0  0  0  0  0  0
    7.5380   -0.3285    0.0000 H   0  0  0  0  0  0  0  0  0  0  0  0
    4.5981    0.3899    0.0000 H   0  0  0  0  0  0  0  0  0  0  0  0
    2.4675    0.5349    0.0000 H   0  0  0  0  0  0  0  0  0  0  0  0
    3.2646    0.5349    0.0000 H   0  0  0  0  0  0  0  0  0  0  0  0
    9.5319    2.8428    0.0000 H   0  0  0  0  0  0  0  0  0  0  0  0
    8.3867   -1.8384    0.0000 H   0  0  0  0  0  0  0  0  0  0  0  0
    9.8176    0.5752    0.0000 H   0  0  0  0  0  0  0  0  0  0  0  0
    2.3100    2.0468    0.0000 H   0  0  0  0  0  0  0  0  0  0  0  0
    1.4631    1.8199    0.0000 H   0  0  0  0  0  0  0  0  0  0  0  0
    1.6900    0.9729    0.0000 H   0  0  0  0  0  0  0  0  0  0  0  0
   11.2111   -0.2510    0.0000 H   0  0  0  0  0  0  0  0  0  0  0  0
   11.1924   -1.8708    0.0000 H   0  0  0  0  0  0  0  0  0  0  0  0
  1 21  1  0  0  0  0
  2 15  2  0  0  0  0
  3 11  1  0  0  0  0
  3 14  1  0  0  0  0
  3 27  1  0  0  0  0
  4  9  1  0  0  0  0
  4 15  1  0  0  0  0
  4 28  1  0  0  0  0
  5  8  1  0  0  0  0
  5 17  2  0  0  0  0
  6 11  2  0  0  0  0
  6 17  1  0  0  0  0
  7  8  2  0  0  0  0
  7 10  1  0  0  0  0
  7 11  1  0  0  0  0
  8 12  1  0  0  0  0
  9 10  2  0  0  0  0
  9 13  1  0  0  0  0
 10 24  1  0  0  0  0
 12 13  2  0  0  0  0
 12 25  1  0  0  0  0
 13 26  1  0  0  0  0
 14 18  2  0  0  0  0
 14 19  1  0  0  0  0
 15 16  1  0  0  0  0
 16 20  1  0  0  0  0
 16 29  1  0  0  0  0
 16 30  1  0  0  0  0
 17 31  1  0  0  0  0
 18 21  1  0  0  0  0
 18 32  1  0  0  0  0
 19 22  2  0  0  0  0
 19 33  1  0  0  0  0
 20 34  1  0  0  0  0
 20 35  1  0  0  0  0
 20 36  1  0  0  0  0
 21 23  2  0  0  0  0
 22 23  1  0  0  0  0
 22 37  1  0  0  0  0
 23 38  1  0  0  0  0
M  END
> <PUBCHEM_COMPOUND_CID>
4709

> <PUBCHEM_COMPOUND_CANONICALIZED>
1

> <PUBCHEM_CACTVS_COMPLEXITY>
408

> <PUBCHEM_CACTVS_HBOND_ACCEPTOR>
4

> <PUBCHEM_CACTVS_HBOND_DONOR>
2

> <PUBCHEM_CACTVS_ROTATABLE_BOND>
4

> <PUBCHEM_CACTVS_SUBSKEYS>
AAADccB7oAAAEAAAAAAAAAAAAAAAAAAAAAA8YIAAAAAAAACx9AAAHgBQAAABrAiBngQ38PbIEACoAydzdACCgCkxAqQJ2CE4ZLiIKOLA2dGEJAholALIyjcQgAAOAACAQAECAAAAAQCAAgQAAAAAAAAAAA==

> <PUBCHEM_IUPAC_OPENEYE_NAME>
N-[4-(3-bromoanilino)quinazolin-6-yl]propanamide

> <PUBCHEM_IUPAC_CAS_NAME>
N-[4-(3-bromoanilino)-6-quinazolinyl]propanamide

> <PUBCHEM_IUPAC_NAME>
N-[4-(3-bromoanilino)quinazolin-6-yl]propanamide

> <PUBCHEM_IUPAC_SYSTEMATIC_NAME>
N-[4-[(3-bromophenyl)amino]quinazolin-6-yl]propanamide

> <PUBCHEM_IUPAC_TRADITIONAL_NAME>
N-[4-(3-bromoanilino)quinazolin-6-yl]propionamide

> <PUBCHEM_IUPAC_INCHI>
InChI=1S/C17H15BrN4O/c1-2-16(23)21-13-6-7-15-14(9-13)17(20-10-19-15)22-12-5-3-4-11(18)8-12/h3-10H,2H2,1H3,(H,21,23)(H,19,20,22)

> <PUBCHEM_IUPAC_INCHIKEY>
WUPUZEMRHDROEO-UHFFFAOYSA-N

> <PUBCHEM_XLOGP3_AA>
3.8

> <PUBCHEM_EXACT_MASS>
370.043

> <PUBCHEM_MOLECULAR_FORMULA>
C17H15BrN4O

> <PUBCHEM_MOLECULAR_WEIGHT>
371.238

> <PUBCHEM_OPENEYE_CAN_SMILES>
CCC(=O)NC1=CC2=C(C=C1)N=CN=C2NC3=CC(=CC=C3)Br

> <PUBCHEM_OPENEYE_ISO_SMILES>
CCC(=O)NC1=CC2=C(C=C1)N=CN=C2NC3=CC(=CC=C3)Br

> <PUBCHEM_CACTVS_TPSA>
66.9

> <PUBCHEM_MONOISOTOPIC_WEIGHT>
370.043

> <PUBCHEM_TOTAL_CHARGE>
0

> <PUBCHEM_HEAVY_ATOM_COUNT>
23

> <PUBCHEM_ATOM_DEF_STEREO_COUNT>
0

> <PUBCHEM_ATOM_UDEF_STEREO_COUNT>
0

> <PUBCHEM_BOND_DEF_STEREO_COUNT>
0

> <PUBCHEM_BOND_UDEF_STEREO_COUNT>
0

> <PUBCHEM_ISOTOPIC_ATOM_COUNT>
0

> <PUBCHEM_COMPONENT_COUNT>
1

> <PUBCHEM_CACTVS_TAUTO_COUNT>
9

> <PUBCHEM_COORDINATE_TYPE>
1
5
255

> <PUBCHEM_BONDANNOTATIONS>
12  13  8
14  18  8
14  19  8
18  21  8
19  22  8
21  23  8
22  23  8
5  17  8
5  8  8
6  11  8
6  17  8
7  10  8
7  11  8
7  8  8
8  12  8
9  10  8
9  13  8

$$$$
11665831
  -OEChem-11021605012D

 28 31  0     0  0  0  0  0  0999 V2000
    4.6660    2.3935    0.0000 O   0  0  0  0  0  0  0  0  0  0  0  0
    3.3073   -1.5504    0.0000 N   0  0  0  0  0  0  0  0  0  0  0  0
    4.3009   -1.5308    0.0000 N   0  0  0  0  0  0  0  0  0  0  0  0
    3.8000   -0.1065    0.0000 C   0  0  0  0  0  0  0  0  0  0  0  0
    4.6660   -0.6065    0.0000 C   0  0  0  0  0  0  0  0  0  0  0  0
    2.9061   -0.6412    0.0000 C   0  0  0  0  0  0  0  0  0  0  0  0
    3.8000    0.8935    0.0000 C   0  0  0  0  0  0  0  0  0  0  0  0
    5.5321   -0.1065    0.0000 C   0  0  0  0  0  0  0  0  0  0  0  0
    5.5321    0.8935    0.0000 C   0  0  0  0  0  0  0  0  0  0  0  0
    4.6660    1.3935    0.0000 C   0  0  0  0  0  0  0  0  0  0  0  0
    2.0000   -0.1273    0.0000 C   0  0  0  0  0  0  0  0  0  0  0  0
    2.9061    1.4282    0.0000 C   0  0  0  0  0  0  0  0  0  0  0  0
    6.4260   -0.6412    0.0000 C   0  0  0  0  0  0  0  0  0  0  0  0
    2.0000    0.9143    0.0000 C   0  0  0  0  0  0  0  0  0  0  0  0
    6.4260    1.4282    0.0000 C   0  0  0  0  0  0  0  0  0  0  0  0
    2.7696   -2.3935    0.0000 C   0  0  0  0  0  0  0  0  0  0  0  0
    7.3321   -0.1273    0.0000 C   0  0  0  0  0  0  0  0  0  0  0  0
    7.3321    0.9143    0.0000 C   0  0  0  0  0  0  0  0  0  0  0  0
    1.4643   -0.4394    0.0000 H   0  0  0  0  0  0  0  0  0  0  0  0
    2.9132    2.0481    0.0000 H   0  0  0  0  0  0  0  0  0  0  0  0
    6.4188   -1.2611    0.0000 H   0  0  0  0  0  0  0  0  0  0  0  0
    1.4643    1.2264    0.0000 H   0  0  0  0  0  0  0  0  0  0  0  0
    6.4188    2.0481    0.0000 H   0  0  0  0  0  0  0  0  0  0  0  0
    2.2468   -2.0601    0.0000 H   0  0  0  0  0  0  0  0  0  0  0  0
    2.4361   -2.9162    0.0000 H   0  0  0  0  0  0  0  0  0  0  0  0
    3.2923   -2.7269    0.0000 H   0  0  0  0  0  0  0  0  0  0  0  0
    7.8678   -0.4394    0.0000 H   0  0  0  0  0  0  0  0  0  0  0  0
    7.8678    1.2264    0.0000 H   0  0  0  0  0  0  0  0  0  0  0  0
  1 10  2  0  0  0  0
  2  3  1  0  0  0  0
  2  6  1  0  0  0  0
  2 16  1  0  0  0  0
  3  5  2  0  0  0  0
  4  5  1  0  0  0  0
  4  6  1  0  0  0  0
  4  7  2  0  0  0  0
  5  8  1  0  0  0  0
  6 11  2  0  0  0  0
  7 10  1  0  0  0  0
  7 12  1  0  0  0  0
  8  9  1  0  0  0  0
  8 13  2  0  0  0  0
  9 10  1  0  0  0  0
  9 15  2  0  0  0  0
 11 14  1  0  0  0  0
 11 19  1  0  0  0  0
 12 14  2  0  0  0  0
 12 20  1  0  0  0  0
 13 17  1  0  0  0  0
 13 21  1  0  0  0  0
 14 22  1  0  0  0  0
 15 18  1  0  0  0  0
 15 23  1  0  0  0  0
 16 24  1  0  0  0  0
 16 25  1  0  0  0  0
 16 26  1  0  0  0  0
 17 18  2  0  0  0  0
 17 27  1  0  0  0  0
 18 28  1  0  0  0  0
M  END
> <PUBCHEM_COMPOUND_CID>
11665831

> <PUBCHEM_COMPOUND_CANONICALIZED>
1

> <PUBCHEM_CACTVS_COMPLEXITY>
370

> <PUBCHEM_CACTVS_HBOND_ACCEPTOR>
2

> <PUBCHEM_CACTVS_HBOND_DONOR>
0

> <PUBCHEM_CACTVS_ROTATABLE_BOND>
0

> <PUBCHEM_CACTVS_SUBSKEYS>
AAADccBzIAAAAAAAAAAAAAAAAAAAAWAAAAAwYMAAAAAAAFjB9AAAHgAIAAAADAyBngQywPIIAACqA6RyRACSBAAlggAY2CE4ZNgIILLA1dGEpQhgiABIyYcciMCOgAAAQAASAACAAASAACQAAAAAAAAAAA==

> <PUBCHEM_IUPAC_INCHI>
InChI=1S/C15H10N2O/c1-17-12-8-4-7-11-13(12)14(16-17)9-5-2-3-6-10(9)15(11)18/h2-8H,1H3

> <PUBCHEM_IUPAC_INCHIKEY>
ODZGYELAMAOARP-UHFFFAOYSA-N

> <PUBCHEM_XLOGP3_AA>
2.7

> <PUBCHEM_EXACT_MASS>
234.079

> <PUBCHEM_MOLECULAR_FORMULA>
C15H10N2O

> <PUBCHEM_MOLECULAR_WEIGHT>
234.258

> <PUBCHEM_OPENEYE_CAN_SMILES>
CN1C2=CC=CC3=C2C(=N1)C4=CC=CC=C4C3=O

> <PUBCHEM_OPENEYE_ISO_SMILES>
CN1C2=CC=CC3=C2C(=N1)C4=CC=CC=C4C3=O

> <PUBCHEM_CACTVS_TPSA>
34.9

> <PUBCHEM_MONOISOTOPIC_WEIGHT>
234.079

> <PUBCHEM_TOTAL_CHARGE>
0

> <PUBCHEM_HEAVY_ATOM_COUNT>
18

> <PUBCHEM_ATOM_DEF_STEREO_COUNT>
0

> <PUBCHEM_ATOM_UDEF_STEREO_COUNT>
0

> <PUBCHEM_BOND_DEF_STEREO_COUNT>
0

> <PUBCHEM_BOND_UDEF_STEREO_COUNT>
0

> <PUBCHEM_ISOTOPIC_ATOM_COUNT>
0

> <PUBCHEM_COMPONENT_COUNT>
1

> <PUBCHEM_CACTVS_TAUTO_COUNT>
1

> <PUBCHEM_COORDINATE_TYPE>
1
5
255

> <PUBCHEM_BONDANNOTATIONS>
11  14  8
12  14  8
13  17  8
15  18  8
17  18  8
2  3  8
2  6  8
3  5  8
4  5  8
4  6  8
4  7  8
6  11  8
7  12  8
8  13  8
8  9  8
9  15  8

$$$$
2857
  -OEChem-11021605012D

 42 44  0     0  0  0  0  0  0999 V2000
    8.9098   -3.7772    0.0000 Br  0  0  0  0  0  0  0  0  0  0  0  0
    3.7320    0.2772    0.0000 O   0  0  0  0  0  0  0  0  0  0  0  0
    3.7320    2.2772    0.0000 O   0  0  0  0  0  0  0  0  0  0  0  0
    7.2125   -0.7574    0.0000 N   0  0  0  0  0  0  0  0  0  0  0  0
    7.2241    2.3119    0.0000 N   0  0  0  0  0  0  0  0  0  0  0  0
    8.1301    0.7564    0.0000 N   0  0  0  0  0  0  0  0  0  0  0  0
    6.3301    0.7772    0.0000 C   0  0  0  0  0  0  0  0  0  0  0  0
    6.3301    1.7772    0.0000 C   0  0  0  0  0  0  0  0  0  0  0  0
    4.5981    0.7772    0.0000 C   0  0  0  0  0  0  0  0  0  0  0  0
    5.4641    0.2772    0.0000 C   0  0  0  0  0  0  0  0  0  0  0  0
    4.5981    1.7772    0.0000 C   0  0  0  0  0  0  0  0  0  0  0  0
    7.2241    0.2426    0.0000 C   0  0  0  0  0  0  0  0  0  0  0  0
    5.4641    2.2772    0.0000 C   0  0  0  0  0  0  0  0  0  0  0  0
    8.0727   -1.2674    0.0000 C   0  0  0  0  0  0  0  0  0  0  0  0
    2.8660    0.7772    0.0000 C   0  0  0  0  0  0  0  0  0  0  0  0
    8.1301    1.7980    0.0000 C   0  0  0  0  0  0  0  0  0  0  0  0
    3.7320    3.2772    0.0000 C   0  0  0  0  0  0  0  0  0  0  0  0
    8.0611   -2.2673    0.0000 C   0  0  0  0  0  0  0  0  0  0  0  0
    8.9444   -0.7774    0.0000 C   0  0  0  0  0  0  0  0  0  0  0  0
    2.0000    0.2772    0.0000 C   0  0  0  0  0  0  0  0  0  0  0  0
    2.8660    3.7772    0.0000 C   0  0  0  0  0  0  0  0  0  0  0  0
    8.9213   -2.7773    0.0000 C   0  0  0  0  0  0  0  0  0  0  0  0
    9.8046   -1.2874    0.0000 C   0  0  0  0  0  0  0  0  0  0  0  0
    9.7931   -2.2873    0.0000 C   0  0  0  0  0  0  0  0  0  0  0  0
    5.4641   -0.3428    0.0000 H   0  0  0  0  0  0  0  0  0  0  0  0
    5.4641    2.8972    0.0000 H   0  0  0  0  0  0  0  0  0  0  0  0
    6.6720   -1.0612    0.0000 H   0  0  0  0  0  0  0  0  0  0  0  0
    3.2646    1.2522    0.0000 H   0  0  0  0  0  0  0  0  0  0  0  0
    2.4675    1.2522    0.0000 H   0  0  0  0  0  0  0  0  0  0  0  0
    4.3426    3.1696    0.0000 H   0  0  0  0  0  0  0  0  0  0  0  0
    3.9441    3.8598    0.0000 H   0  0  0  0  0  0  0  0  0  0  0  0
    8.6659    2.1101    0.0000 H   0  0  0  0  0  0  0  0  0  0  0  0
    7.5206   -2.5711    0.0000 H   0  0  0  0  0  0  0  0  0  0  0  0
    8.9516   -0.1575    0.0000 H   0  0  0  0  0  0  0  0  0  0  0  0
    1.6900    0.8141    0.0000 H   0  0  0  0  0  0  0  0  0  0  0  0
    1.4631   -0.0328    0.0000 H   0  0  0  0  0  0  0  0  0  0  0  0
    2.3100   -0.2597    0.0000 H   0  0  0  0  0  0  0  0  0  0  0  0
    3.1760    4.3142    0.0000 H   0  0  0  0  0  0  0  0  0  0  0  0
    2.3291    4.0872    0.0000 H   0  0  0  0  0  0  0  0  0  0  0  0
    2.5560    3.2403    0.0000 H   0  0  0  0  0  0  0  0  0  0  0  0
   10.3451   -0.9836    0.0000 H   0  0  0  0  0  0  0  0  0  0  0  0
   10.3264   -2.6035    0.0000 H   0  0  0  0  0  0  0  0  0  0  0  0
  1 22  1  0  0  0  0
  2  9  1  0  0  0  0
  2 15  1  0  0  0  0
  3 11  1  0  0  0  0
  3 17  1  0  0  0  0
  4 12  1  0  0  0  0
  4 14  1  0  0  0  0
  4 27  1  0  0  0  0
  5  8  1  0  0  0  0
  5 16  2  0  0  0  0
  6 12  2  0  0  0  0
  6 16  1  0  0  0  0
  7  8  1  0  0  0  0
  7 10  2  0  0  0  0
  7 12  1  0  0  0  0
  8 13  2  0  0  0  0
  9 10  1  0  0  0  0
  9 11  2  0  0  0  0
 10 25  1  0  0  0  0
 11 13  1  0  0  0  0
 13 26  1  0  0  0  0
 14 18  2  0  0  0  0
 14 19  1  0  0  0  0
 15 20  1  0  0  0  0
 15 28  1  0  0  0  0
 15 29  1  0  0  0  0
 16 32  1  0  0  0  0
 17 21  1  0  0  0  0
 17 30  1  0  0  0  0
 17 31  1  0  0  0  0
 18 22  1  0  0  0  0
 18 33  1  0  0  0  0
 19 23  2  0  0  0  0
 19 34  1  0  0  0  0
 20 35  1  0  0  0  0
 20 36  1  0  0  0  0
 20 37  1  0  0  0  0
 21 38  1  0  0  0  0
 21 39  1  0  0  0  0
 21 40  1  0  0  0  0
 22 24  2  0  0  0  0
 23 24  1  0  0  0  0
 23 41  1  0  0  0  0
 24 42  1  0  0  0  0
M  END
> <PUBCHEM_COMPOUND_CID>
2857

> <PUBCHEM_COMPOUND_CANONICALIZED>
1

> <PUBCHEM_CACTVS_COMPLEXITY>
387

> <PUBCHEM_CACTVS_HBOND_ACCEPTOR>
5

> <PUBCHEM_CACTVS_HBOND_DONOR>
1

> <PUBCHEM_CACTVS_ROTATABLE_BOND>
6

> <PUBCHEM_CACTVS_SUBSKEYS>
AAADceB7MAAAEAAAAAAAAAAAAAAAAAAAAAA8YIAAAAAAAACx9AAAHgBQAAABrAyhngY39vbIFACgAyZjZACCiCkxIqQJ2CA+7LiNLuLE+duGPCru0BvK6jew0BMOIEABAgECQABAgAIEAgSAAAAAAAAAAA==

> <PUBCHEM_IUPAC_OPENEYE_NAME>
N-(3-bromophenyl)-6,7-diethoxy-quinazolin-4-amine

> <PUBCHEM_IUPAC_CAS_NAME>
N-(3-bromophenyl)-6,7-diethoxy-4-quinazolinamine

> <PUBCHEM_IUPAC_NAME>
N-(3-bromophenyl)-6,7-diethoxyquinazolin-4-amine

> <PUBCHEM_IUPAC_SYSTEMATIC_NAME>
N-(3-bromophenyl)-6,7-diethoxy-quinazolin-4-amine

> <PUBCHEM_IUPAC_TRADITIONAL_NAME>
(3-bromophenyl)-(6,7-diethoxyquinazolin-4-yl)amine

> <PUBCHEM_IUPAC_INCHI>
InChI=1S/C18H18BrN3O2/c1-3-23-16-9-14-15(10-17(16)24-4-2)20-11-21-18(14)22-13-7-5-6-12(19)8-13/h5-11H,3-4H2,1-2H3,(H,20,21,22)

> <PUBCHEM_IUPAC_INCHIKEY>
YXOXHAUUTIOBDA-UHFFFAOYSA-N

> <PUBCHEM_XLOGP3_AA>
4.8

> <PUBCHEM_EXACT_MASS>
387.058

> <PUBCHEM_MOLECULAR_FORMULA>
C18H18BrN3O2

> <PUBCHEM_MOLECULAR_WEIGHT>
388.265

> <PUBCHEM_OPENEYE_CAN_SMILES>
CCOC1=C(C=C2C(=C1)C(=NC=N2)NC3=CC(=CC=C3)Br)OCC

> <PUBCHEM_OPENEYE_ISO_SMILES>
CCOC1=C(C=C2C(=C1)C(=NC=N2)NC3=CC(=CC=C3)Br)OCC

> <PUBCHEM_CACTVS_TPSA>
56.3

> <PUBCHEM_MONOISOTOPIC_WEIGHT>
387.058

> <PUBCHEM_TOTAL_CHARGE>
0

> <PUBCHEM_HEAVY_ATOM_COUNT>
24

> <PUBCHEM_ATOM_DEF_STEREO_COUNT>
0

> <PUBCHEM_ATOM_UDEF_STEREO_COUNT>
0

> <PUBCHEM_BOND_DEF_STEREO_COUNT>
0

> <PUBCHEM_BOND_UDEF_STEREO_COUNT>
0

> <PUBCHEM_ISOTOPIC_ATOM_COUNT>
0

> <PUBCHEM_COMPONENT_COUNT>
1

> <PUBCHEM_CACTVS_TAUTO_COUNT>
3

> <PUBCHEM_COORDINATE_TYPE>
1
5
255

> <PUBCHEM_BONDANNOTATIONS>
11  13  8
14  18  8
14  19  8
18  22  8
19  23  8
22  24  8
23  24  8
5  16  8
5  8  8
6  12  8
6  16  8
7  10  8
7  12  8
7  8  8
8  13  8
9  10  8
9  11  8

$$$$
672296
  -OEChem-11021605012D

 21 22  0     0  0  0  0  0  0999 V2000
    8.1424    0.3047    0.0000 O   0  0  0  0  0  0  0  0  0  0  0  0
    8.1424   -1.3047    0.0000 O   0  0  0  0  0  0  0  0  0  0  0  0
    2.0000    0.0000    0.0000 O   0  5  0  0  0  0  0  0  0  0  0  0
    2.8660    1.5000    0.0000 O   0  0  0  0  0  0  0  0  0  0  0  0
    2.8660    0.5000    0.0000 N   0  3  0  0  0  0  0  0  0  0  0  0
    7.1962    0.0000    0.0000 C   0  0  0  0  0  0  0  0  0  0  0  0
    7.1962   -1.0000    0.0000 C   0  0  0  0  0  0  0  0  0  0  0  0
    5.4641    0.0000    0.0000 C   0  0  0  0  0  0  0  0  0  0  0  0
    6.3301    0.5000    0.0000 C   0  0  0  0  0  0  0  0  0  0  0  0
    6.3301   -1.5000    0.0000 C   0  0  0  0  0  0  0  0  0  0  0  0
    8.7260   -0.5000    0.0000 C   0  0  0  0  0  0  0  0  0  0  0  0
    5.4641   -1.0000    0.0000 C   0  0  0  0  0  0  0  0  0  0  0  0
    4.5981    0.5000    0.0000 C   0  0  0  0  0  0  0  0  0  0  0  0
    3.7320    0.0000    0.0000 C   0  0  0  0  0  0  0  0  0  0  0  0
    6.3301    1.1200    0.0000 H   0  0  0  0  0  0  0  0  0  0  0  0
    6.3301   -2.1200    0.0000 H   0  0  0  0  0  0  0  0  0  0  0  0
    9.1868   -0.9147    0.0000 H   0  0  0  0  0  0  0  0  0  0  0  0
    9.1868   -0.0853    0.0000 H   0  0  0  0  0  0  0  0  0  0  0  0
    4.9272   -1.3100    0.0000 H   0  0  0  0  0  0  0  0  0  0  0  0
    4.5981    1.1200    0.0000 H   0  0  0  0  0  0  0  0  0  0  0  0
    3.7320   -0.6200    0.0000 H   0  0  0  0  0  0  0  0  0  0  0  0
  1  6  1  0  0  0  0
  1 11  1  0  0  0  0
  2  7  1  0  0  0  0
  2 11  1  0  0  0  0
  3  5  1  0  0  0  0
  4  5  2  0  0  0  0
  5 14  1  0  0  0  0
  6  7  2  0  0  0  0
  6  9  1  0  0  0  0
  7 10  1  0  0  0  0
  8  9  2  0  0  0  0
  8 12  1  0  0  0  0
  8 13  1  0  0  0  0
  9 15  1  0  0  0  0
 10 12  2  0  0  0  0
 10 16  1  0  0  0  0
 11 17  1  0  0  0  0
 11 18  1  0  0  0  0
 12 19  1  0  0  0  0
 13 14  2  0  0  0  0
 13 20  1  0  0  0  0
 14 21  1  0  0  0  0
M  CHG  2   3  -1   5   1
M  END
> <PUBCHEM_COMPOUND_CID>
672296

> <PUBCHEM_COMPOUND_CANONICALIZED>
1

> <PUBCHEM_CACTVS_COMPLEXITY>
248

> <PUBCHEM_CACTVS_HBOND_ACCEPTOR>
4

> <PUBCHEM_CACTVS_HBOND_DONOR>
0

> <PUBCHEM_CACTVS_ROTATABLE_BOND>
1

> <PUBCHEM_CACTVS_SUBSKEYS>
AAADcYByOAAAAAAAAAAAAAAAAAAAASAAAAAwAAAAAAAAAEgBAAAAHgAEAAAADATBmAcwDoAQRACBAiBGQwACCAAgIgAIiAAGiIgdJiKEMRqgMCIkwBEOqAeAwBAOIAABAAAAQABAAAIAAACAAAAAAAAAAA==

> <PUBCHEM_IUPAC_OPENEYE_NAME>
5-[(E)-2-nitrovinyl]-1,3-benzodioxole

> <PUBCHEM_IUPAC_CAS_NAME>
5-[(E)-2-nitroethenyl]-1,3-benzodioxole

> <PUBCHEM_IUPAC_NAME>
5-[(E)-2-nitroethenyl]-1,3-benzodioxole

> <PUBCHEM_IUPAC_SYSTEMATIC_NAME>
5-[(E)-2-nitroethenyl]-1,3-benzodioxole

> <PUBCHEM_IUPAC_TRADITIONAL_NAME>
5-[(E)-2-nitrovinyl]-1,3-benzodioxole

> <PUBCHEM_IUPAC_INCHI>
InChI=1S/C9H7NO4/c11-10(12)4-3-7-1-2-8-9(5-7)14-6-13-8/h1-5H,6H2/b4-3+

> <PUBCHEM_IUPAC_INCHIKEY>
KFLWBZPSJQPRDD-ONEGZZNKSA-N

> <PUBCHEM_XLOGP3>
2.4

> <PUBCHEM_EXACT_MASS>
193.038

> <PUBCHEM_MOLECULAR_FORMULA>
C9H7NO4

> <PUBCHEM_MOLECULAR_WEIGHT>
193.158

> <PUBCHEM_OPENEYE_CAN_SMILES>
C1OC2=C(O1)C=C(C=C2)C=C[N+](=O)[O-]

> <PUBCHEM_OPENEYE_ISO_SMILES>
C1OC2=C(O1)C=C(C=C2)/C=C/[N+](=O)[O-]

> <PUBCHEM_CACTVS_TPSA>
64.3

> <PUBCHEM_MONOISOTOPIC_WEIGHT>
193.038

> <PUBCHEM_TOTAL_CHARGE>
0

> <PUBCHEM_HEAVY_ATOM_COUNT>
14

> <PUBCHEM_ATOM_DEF_STEREO_COUNT>
0

> <PUBCHEM_ATOM_UDEF_STEREO_COUNT>
0

> <PUBCHEM_BOND_DEF_STEREO_COUNT>
1

> <PUBCHEM_BOND_UDEF_STEREO_COUNT>
0

> <PUBCHEM_ISOTOPIC_ATOM_COUNT>
0

> <PUBCHEM_COMPONENT_COUNT>
1

> <PUBCHEM_CACTVS_TAUTO_COUNT>
2

> <PUBCHEM_COORDINATE_TYPE>
1
5
255

> <PUBCHEM_BONDANNOTATIONS>
10  12  8
6  7  8
6  9  8
7  10  8
8  12  8
8  9  8

$$$$
6419739
  -OEChem-11021605012D

 50 53  0     1  0  0  0  0  0999 V2000
    5.2423    4.1739    0.0000 S   0  0  0  0  0  0  0  0  0  0  0  0
   10.9434    1.1778    0.0000 F   0  0  0  0  0  0  0  0  0  0  0  0
    4.5981   -1.1739    0.0000 N   0  0  0  0  0  0  0  0  0  0  0  0
    6.8301    3.3649    0.0000 N   0  0  0  0  0  0  0  0  0  0  0  0
    5.5211    2.4139    0.0000 N   0  0  0  0  0  0  0  0  0  0  0  0
    6.3301   -1.1739    0.0000 N   0  0  0  0  0  0  0  0  0  0  0  0
    4.5981   -2.1739    0.0000 C   0  0  3  0  0  0  0  0  0  0  0  0
    3.7320   -2.6739    0.0000 C   0  0  0  0  0  0  0  0  0  0  0  0
    6.3301    1.8261    0.0000 C   0  0  0  0  0  0  0  0  0  0  0  0
    6.3301    0.8261    0.0000 C   0  0  0  0  0  0  0  0  0  0  0  0
    7.1391    2.4139    0.0000 C   0  0  0  0  0  0  0  0  0  0  0  0
    5.4641   -0.6739    0.0000 C   0  0  0  0  0  0  0  0  0  0  0  0
    5.4641   -2.6739    0.0000 C   0  0  0  0  0  0  0  0  0  0  0  0
    5.4641    0.3261    0.0000 C   0  0  0  0  0  0  0  0  0  0  0  0
    8.0902    2.1048    0.0000 C   0  0  0  0  0  0  0  0  0  0  0  0
    2.8660   -2.1739    0.0000 C   0  0  0  0  0  0  0  0  0  0  0  0
    3.7320   -3.6739    0.0000 C   0  0  0  0  0  0  0  0  0  0  0  0
    7.1962    0.3261    0.0000 C   0  0  0  0  0  0  0  0  0  0  0  0
    5.8301    3.3649    0.0000 C   0  0  0  0  0  0  0  0  0  0  0  0
    7.1962   -0.6739    0.0000 C   0  0  0  0  0  0  0  0  0  0  0  0
    8.2981    1.1267    0.0000 C   0  0  0  0  0  0  0  0  0  0  0  0
    8.8334    2.7740    0.0000 C   0  0  0  0  0  0  0  0  0  0  0  0
    2.0000   -2.6739    0.0000 C   0  0  0  0  0  0  0  0  0  0  0  0
    2.8660   -4.1739    0.0000 C   0  0  0  0  0  0  0  0  0  0  0  0
    2.0000   -3.6739    0.0000 C   0  0  0  0  0  0  0  0  0  0  0  0
    9.2492    0.8177    0.0000 C   0  0  0  0  0  0  0  0  0  0  0  0
    9.7844    2.4650    0.0000 C   0  0  0  0  0  0  0  0  0  0  0  0
    9.9923    1.4868    0.0000 C   0  0  0  0  0  0  0  0  0  0  0  0
    4.2478    4.0694    0.0000 C   0  0  0  0  0  0  0  0  0  0  0  0
    5.3342   -1.7489    0.0000 H   0  0  0  0  0  0  0  0  0  0  0  0
    4.0611   -0.8639    0.0000 H   0  0  0  0  0  0  0  0  0  0  0  0
    5.1541   -3.2109    0.0000 H   0  0  0  0  0  0  0  0  0  0  0  0
    6.0010   -2.9839    0.0000 H   0  0  0  0  0  0  0  0  0  0  0  0
    5.7741   -2.1370    0.0000 H   0  0  0  0  0  0  0  0  0  0  0  0
    4.9272    0.6361    0.0000 H   0  0  0  0  0  0  0  0  0  0  0  0
    7.1946    3.8665    0.0000 H   0  0  0  0  0  0  0  0  0  0  0  0
    2.8660   -1.5539    0.0000 H   0  0  0  0  0  0  0  0  0  0  0  0
    4.2690   -3.9839    0.0000 H   0  0  0  0  0  0  0  0  0  0  0  0
    7.7331    0.6361    0.0000 H   0  0  0  0  0  0  0  0  0  0  0  0
    7.7331   -0.9839    0.0000 H   0  0  0  0  0  0  0  0  0  0  0  0
    7.8374    0.7118    0.0000 H   0  0  0  0  0  0  0  0  0  0  0  0
    8.7044    3.3804    0.0000 H   0  0  0  0  0  0  0  0  0  0  0  0
    1.4631   -2.3639    0.0000 H   0  0  0  0  0  0  0  0  0  0  0  0
    2.8660   -4.7939    0.0000 H   0  0  0  0  0  0  0  0  0  0  0  0
    1.4631   -3.9839    0.0000 H   0  0  0  0  0  0  0  0  0  0  0  0
    9.3781    0.2112    0.0000 H   0  0  0  0  0  0  0  0  0  0  0  0
   10.2452    2.8798    0.0000 H   0  0  0  0  0  0  0  0  0  0  0  0
    4.1830    4.6860    0.0000 H   0  0  0  0  0  0  0  0  0  0  0  0
    3.6312    4.0046    0.0000 H   0  0  0  0  0  0  0  0  0  0  0  0
    4.3126    3.4528    0.0000 H   0  0  0  0  0  0  0  0  0  0  0  0
  1 19  1  0  0  0  0
  1 29  1  0  0  0  0
  2 28  1  0  0  0  0
  3  7  1  0  0  0  0
  3 12  1  0  0  0  0
  3 31  1  0  0  0  0
  4 11  1  0  0  0  0
  4 19  1  0  0  0  0
  4 36  1  0  0  0  0
  5  9  1  0  0  0  0
  5 19  2  0  0  0  0
  6 12  2  0  0  0  0
  6 20  1  0  0  0  0
  7  8  1  0  0  0  0
  7 13  1  0  0  0  0
  7 30  1  0  0  0  0
  8 16  2  0  0  0  0
  8 17  1  0  0  0  0
  9 10  1  0  0  0  0
  9 11  2  0  0  0  0
 10 14  2  0  0  0  0
 10 18  1  0  0  0  0
 11 15  1  0  0  0  0
 12 14  1  0  0  0  0
 13 32  1  0  0  0  0
 13 33  1  0  0  0  0
 13 34  1  0  0  0  0
 14 35  1  0  0  0  0
 15 21  2  0  0  0  0
 15 22  1  0  0  0  0
 16 23  1  0  0  0  0
 16 37  1  0  0  0  0
 17 24  2  0  0  0  0
 17 38  1  0  0  0  0
 18 20  2  0  0  0  0
 18 39  1  0  0  0  0
 20 40  1  0  0  0  0
 21 26  1  0  0  0  0
 21 41  1  0  0  0  0
 22 27  2  0  0  0  0
 22 42  1  0  0  0  0
 23 25  2  0  0  0  0
 23 43  1  0  0  0  0
 24 25  1  0  0  0  0
 24 44  1  0  0  0  0
 25 45  1  0  0  0  0
 26 28  2  0  0  0  0
 26 46  1  0  0  0  0
 27 28  1  0  0  0  0
 27 47  1  0  0  0  0
 29 48  1  0  0  0  0
 29 49  1  0  0  0  0
 29 50  1  0  0  0  0
M  END
> <PUBCHEM_COMPOUND_CID>
6419739

> <PUBCHEM_COMPOUND_CANONICALIZED>
1

> <PUBCHEM_CACTVS_COMPLEXITY>
495

> <PUBCHEM_CACTVS_HBOND_ACCEPTOR>
5

> <PUBCHEM_CACTVS_HBOND_DONOR>
2

> <PUBCHEM_CACTVS_ROTATABLE_BOND>
6

> <PUBCHEM_CACTVS_SUBSKEYS>
AAADceB7gQBAAAAAAAAAAAAAAAAAAWAAAAA8YIAAAAAAAAAB9AAAHQQQAAAADCjBHgy/sJbJkAigAzZnZACC0i3xEqAJ2aA4dJiIaOLAmZGUIAhokALIyCcQgMAOAAAAAAAAAAAAAAAAAAAAAAAAAAAAAA==

> <PUBCHEM_IUPAC_OPENEYE_NAME>
4-[5-(4-fluorophenyl)-2-methylsulfanyl-1H-imidazol-4-yl]-N-(1-phenylethyl)pyridin-2-amine

> <PUBCHEM_IUPAC_CAS_NAME>
4-[5-(4-fluorophenyl)-2-(methylthio)-1H-imidazol-4-yl]-N-(1-phenylethyl)-2-pyridinamine

> <PUBCHEM_IUPAC_NAME>
4-[5-(4-fluorophenyl)-2-methylsulfanyl-1H-imidazol-4-yl]-N-(1-phenylethyl)pyridin-2-amine

> <PUBCHEM_IUPAC_SYSTEMATIC_NAME>
4-[5-(4-fluorophenyl)-2-methylsulfanyl-1H-imidazol-4-yl]-N-(1-phenylethyl)pyridin-2-amine

> <PUBCHEM_IUPAC_TRADITIONAL_NAME>
[4-[5-(4-fluorophenyl)-2-(methylthio)-1H-imidazol-4-yl]-2-pyridyl]-(1-phenylethyl)amine

> <PUBCHEM_IUPAC_INCHI>
InChI=1S/C23H21FN4S/c1-15(16-6-4-3-5-7-16)26-20-14-18(12-13-25-20)22-21(27-23(28-22)29-2)17-8-10-19(24)11-9-17/h3-15H,1-2H3,(H,25,26)(H,27,28)

> <PUBCHEM_IUPAC_INCHIKEY>
VXPWQNBKEIVYIS-UHFFFAOYSA-N

> <PUBCHEM_XLOGP3_AA>
5.5

> <PUBCHEM_EXACT_MASS>
404.147

> <PUBCHEM_MOLECULAR_FORMULA>
C23H21FN4S

> <PUBCHEM_MOLECULAR_WEIGHT>
404.507

> <PUBCHEM_OPENEYE_CAN_SMILES>
CC(C1=CC=CC=C1)NC2=NC=CC(=C2)C3=C(NC(=N3)SC)C4=CC=C(C=C4)F

> <PUBCHEM_OPENEYE_ISO_SMILES>
CC(C1=CC=CC=C1)NC2=NC=CC(=C2)C3=C(NC(=N3)SC)C4=CC=C(C=C4)F

> <PUBCHEM_CACTVS_TPSA>
78.9

> <PUBCHEM_MONOISOTOPIC_WEIGHT>
404.147

> <PUBCHEM_TOTAL_CHARGE>
0

> <PUBCHEM_HEAVY_ATOM_COUNT>
29

> <PUBCHEM_ATOM_DEF_STEREO_COUNT>
0

> <PUBCHEM_ATOM_UDEF_STEREO_COUNT>
1

> <PUBCHEM_BOND_DEF_STEREO_COUNT>
0

> <PUBCHEM_BOND_UDEF_STEREO_COUNT>
0

> <PUBCHEM_ISOTOPIC_ATOM_COUNT>
0

> <PUBCHEM_COMPONENT_COUNT>
1

> <PUBCHEM_CACTVS_TAUTO_COUNT>
13

> <PUBCHEM_COORDINATE_TYPE>
1
5
255

> <PUBCHEM_BONDANNOTATIONS>
10  14  8
10  18  8
12  14  8
15  21  8
15  22  8
16  23  8
17  24  8
18  20  8
21  26  8
22  27  8
23  25  8
24  25  8
26  28  8
27  28  8
4  11  8
4  19  8
5  19  8
5  9  8
6  12  8
6  20  8
7  30  3
8  16  8
8  17  8
9  11  8

$$$$
10202471
  -OEChem-11021605012D

 61 64  0     0  0  0  0  0  0999 V2000
    9.7942    0.0600    0.0000 O   0  0  0  0  0  0  0  0  0  0  0  0
    4.5981    0.0600    0.0000 O   0  0  0  0  0  0  0  0  0  0  0  0
    8.9282   -1.4400    0.0000 N   0  0  0  0  0  0  0  0  0  0  0  0
   11.6065   -1.1353    0.0000 N   0  0  0  0  0  0  0  0  0  0  0  0
    9.7942   -2.9400    0.0000 N   0  0  0  0  0  0  0  0  0  0  0  0
    8.0622   -2.9400    0.0000 N   0  0  0  0  0  0  0  0  0  0  0  0
   11.6065   -2.7447    0.0000 N   0  0  0  0  0  0  0  0  0  0  0  0
    3.7320   -1.4400    0.0000 N   0  0  0  0  0  0  0  0  0  0  0  0
    8.9282    1.5600    0.0000 C   0  0  0  0  0  0  0  0  0  0  0  0
    9.7942    2.0600    0.0000 C   0  0  0  0  0  0  0  0  0  0  0  0
    8.0622    2.0600    0.0000 C   0  0  0  0  0  0  0  0  0  0  0  0
    8.0622    3.0600    0.0000 C   0  0  0  0  0  0  0  0  0  0  0  0
    9.7942    3.0600    0.0000 C   0  0  0  0  0  0  0  0  0  0  0  0
    8.9282    3.5600    0.0000 C   0  0  0  0  0  0  0  0  0  0  0  0
    8.9282    0.5600    0.0000 C   0  0  0  0  0  0  0  0  0  0  0  0
    9.7942   -0.9400    0.0000 C   0  0  0  0  0  0  0  0  0  0  0  0
   10.6603   -1.4400    0.0000 C   0  0  0  0  0  0  0  0  0  0  0  0
   10.6603   -2.4400    0.0000 C   0  0  0  0  0  0  0  0  0  0  0  0
    8.9282   -2.4400    0.0000 C   0  0  0  0  0  0  0  0  0  0  0  0
   12.1901   -1.9400    0.0000 C   0  0  0  0  0  0  0  0  0  0  0  0
    7.1962   -2.4400    0.0000 C   0  0  0  0  0  0  0  0  0  0  0  0
    2.8660   -0.9400    0.0000 C   0  0  0  0  0  0  0  0  0  0  0  0
    3.7320   -2.4400    0.0000 C   0  0  0  0  0  0  0  0  0  0  0  0
    5.4641   -1.4400    0.0000 C   0  0  0  0  0  0  0  0  0  0  0  0
    4.5981   -0.9400    0.0000 C   0  0  0  0  0  0  0  0  0  0  0  0
    7.1962   -1.4400    0.0000 C   0  0  0  0  0  0  0  0  0  0  0  0
    6.3301   -2.9400    0.0000 C   0  0  0  0  0  0  0  0  0  0  0  0
    6.3301   -0.9400    0.0000 C   0  0  0  0  0  0  0  0  0  0  0  0
    5.4641   -2.4400    0.0000 C   0  0  0  0  0  0  0  0  0  0  0  0
    2.8660   -2.9400    0.0000 C   0  0  0  0  0  0  0  0  0  0  0  0
    2.0000   -1.4400    0.0000 C   0  0  0  0  0  0  0  0  0  0  0  0
    9.4651    1.2500    0.0000 H   0  0  0  0  0  0  0  0  0  0  0  0
   10.0063    1.4774    0.0000 H   0  0  0  0  0  0  0  0  0  0  0  0
   10.4048    2.1677    0.0000 H   0  0  0  0  0  0  0  0  0  0  0  0
    7.4516    2.1677    0.0000 H   0  0  0  0  0  0  0  0  0  0  0  0
    7.8501    1.4774    0.0000 H   0  0  0  0  0  0  0  0  0  0  0  0
   10.4048    2.9523    0.0000 H   0  0  0  0  0  0  0  0  0  0  0  0
   10.0063    3.6426    0.0000 H   0  0  0  0  0  0  0  0  0  0  0  0
    7.8501    3.6426    0.0000 H   0  0  0  0  0  0  0  0  0  0  0  0
    7.4516    2.9523    0.0000 H   0  0  0  0  0  0  0  0  0  0  0  0
    9.3267    4.0350    0.0000 H   0  0  0  0  0  0  0  0  0  0  0  0
    8.5297    4.0350    0.0000 H   0  0  0  0  0  0  0  0  0  0  0  0
    8.3176    0.6677    0.0000 H   0  0  0  0  0  0  0  0  0  0  0  0
    8.7162   -0.0226    0.0000 H   0  0  0  0  0  0  0  0  0  0  0  0
   11.7991   -0.5459    0.0000 H   0  0  0  0  0  0  0  0  0  0  0  0
   12.8101   -1.9400    0.0000 H   0  0  0  0  0  0  0  0  0  0  0  0
    8.0622   -3.5600    0.0000 H   0  0  0  0  0  0  0  0  0  0  0  0
    3.2646   -0.4651    0.0000 H   0  0  0  0  0  0  0  0  0  0  0  0
    2.4675   -0.4651    0.0000 H   0  0  0  0  0  0  0  0  0  0  0  0
    3.9441   -3.0226    0.0000 H   0  0  0  0  0  0  0  0  0  0  0  0
    4.3426   -2.3323    0.0000 H   0  0  0  0  0  0  0  0  0  0  0  0
    7.7331   -1.1300    0.0000 H   0  0  0  0  0  0  0  0  0  0  0  0
    6.3301   -3.5600    0.0000 H   0  0  0  0  0  0  0  0  0  0  0  0
    6.3301   -0.3200    0.0000 H   0  0  0  0  0  0  0  0  0  0  0  0
    4.9272   -2.7500    0.0000 H   0  0  0  0  0  0  0  0  0  0  0  0
    2.5560   -2.4031    0.0000 H   0  0  0  0  0  0  0  0  0  0  0  0
    2.3291   -3.2500    0.0000 H   0  0  0  0  0  0  0  0  0  0  0  0
    3.1760   -3.4769    0.0000 H   0  0  0  0  0  0  0  0  0  0  0  0
    1.6900   -0.9031    0.0000 H   0  0  0  0  0  0  0  0  0  0  0  0
    1.4631   -1.7500    0.0000 H   0  0  0  0  0  0  0  0  0  0  0  0
    2.3100   -1.9769    0.0000 H   0  0  0  0  0  0  0  0  0  0  0  0
  1 15  1  0  0  0  0
  1 16  1  0  0  0  0
  2 25  2  0  0  0  0
  3 16  2  0  0  0  0
  3 19  1  0  0  0  0
  4 17  1  0  0  0  0
  4 20  1  0  0  0  0
  4 45  1  0  0  0  0
  5 18  1  0  0  0  0
  5 19  2  0  0  0  0
  6 19  1  0  0  0  0
  6 21  1  0  0  0  0
  6 47  1  0  0  0  0
  7 18  1  0  0  0  0
  7 20  2  0  0  0  0
  8 22  1  0  0  0  0
  8 23  1  0  0  0  0
  8 25  1  0  0  0  0
  9 10  1  0  0  0  0
  9 11  1  0  0  0  0
  9 15  1  0  0  0  0
  9 32  1  0  0  0  0
 10 13  1  0  0  0  0
 10 33  1  0  0  0  0
 10 34  1  0  0  0  0
 11 12  1  0  0  0  0
 11 35  1  0  0  0  0
 11 36  1  0  0  0  0
 12 14  1  0  0  0  0
 12 39  1  0  0  0  0
 12 40  1  0  0  0  0
 13 14  1  0  0  0  0
 13 37  1  0  0  0  0
 13 38  1  0  0  0  0
 14 41  1  0  0  0  0
 14 42  1  0  0  0  0
 15 43  1  0  0  0  0
 15 44  1  0  0  0  0
 16 17  1  0  0  0  0
 17 18  2  0  0  0  0
 20 46  1  0  0  0  0
 21 26  2  0  0  0  0
 21 27  1  0  0  0  0
 22 31  1  0  0  0  0
 22 48  1  0  0  0  0
 22 49  1  0  0  0  0
 23 30  1  0  0  0  0
 23 50  1  0  0  0  0
 23 51  1  0  0  0  0
 24 25  1  0  0  0  0
 24 28  2  0  0  0  0
 24 29  1  0  0  0  0
 26 28  1  0  0  0  0
 26 52  1  0  0  0  0
 27 29  2  0  0  0  0
 27 53  1  0  0  0  0
 28 54  1  0  0  0  0
 29 55  1  0  0  0  0
 30 56  1  0  0  0  0
 30 57  1  0  0  0  0
 30 58  1  0  0  0  0
 31 59  1  0  0  0  0
 31 60  1  0  0  0  0
 31 61  1  0  0  0  0
M  END
> <PUBCHEM_COMPOUND_CID>
10202471

> <PUBCHEM_COMPOUND_CANONICALIZED>
1

> <PUBCHEM_CACTVS_COMPLEXITY>
560

> <PUBCHEM_CACTVS_HBOND_ACCEPTOR>
6

> <PUBCHEM_CACTVS_HBOND_DONOR>
2

> <PUBCHEM_CACTVS_ROTATABLE_BOND>
8

> <PUBCHEM_CACTVS_SUBSKEYS>
AAADceB7sAAAAAAAAAAAAAAAAAAAAWAAAAA8YIAAAAAAAFgB/AAAHgAQAAAADQjhnwY39L/JlACoAydzdASCiC21cqAJ2aEtfNiObDLE/dmfLSjulgrY6aeYySCeCAAAAAAAAAAQAAAAAAAAAAAAAAAAAA==

> <PUBCHEM_IUPAC_OPENEYE_NAME>
4-[[6-(cyclohexylmethoxy)-7H-purin-2-yl]amino]-N,N-diethyl-benzamide

> <PUBCHEM_IUPAC_CAS_NAME>
4-[[6-(cyclohexylmethoxy)-7H-purin-2-yl]amino]-N,N-diethylbenzamide

> <PUBCHEM_IUPAC_NAME>
4-[[6-(cyclohexylmethoxy)-7H-purin-2-yl]amino]-N,N-diethylbenzamide

> <PUBCHEM_IUPAC_SYSTEMATIC_NAME>
4-[[6-(cyclohexylmethoxy)-7H-purin-2-yl]amino]-N,N-diethyl-benzamide

> <PUBCHEM_IUPAC_TRADITIONAL_NAME>
4-[[6-(cyclohexylmethoxy)-7H-purin-2-yl]amino]-N,N-diethyl-benzamide

> <PUBCHEM_IUPAC_INCHI>
InChI=1S/C23H30N6O2/c1-3-29(4-2)22(30)17-10-12-18(13-11-17)26-23-27-20-19(24-15-25-20)21(28-23)31-14-16-8-6-5-7-9-16/h10-13,15-16H,3-9,14H2,1-2H3,(H2,24,25,26,27,28)

> <PUBCHEM_IUPAC_INCHIKEY>
XHEQSRJCJTWWAH-UHFFFAOYSA-N

> <PUBCHEM_XLOGP3_AA>
4.8

> <PUBCHEM_EXACT_MASS>
422.243

> <PUBCHEM_MOLECULAR_FORMULA>
C23H30N6O2

> <PUBCHEM_MOLECULAR_WEIGHT>
422.533

> <PUBCHEM_OPENEYE_CAN_SMILES>
CCN(CC)C(=O)C1=CC=C(C=C1)NC2=NC3=C(C(=N2)OCC4CCCCC4)NC=N3

> <PUBCHEM_OPENEYE_ISO_SMILES>
CCN(CC)C(=O)C1=CC=C(C=C1)NC2=NC3=C(C(=N2)OCC4CCCCC4)NC=N3

> <PUBCHEM_CACTVS_TPSA>
96

> <PUBCHEM_MONOISOTOPIC_WEIGHT>
422.243

> <PUBCHEM_TOTAL_CHARGE>
0

> <PUBCHEM_HEAVY_ATOM_COUNT>
31

> <PUBCHEM_ATOM_DEF_STEREO_COUNT>
0

> <PUBCHEM_ATOM_UDEF_STEREO_COUNT>
0

> <PUBCHEM_BOND_DEF_STEREO_COUNT>
0

> <PUBCHEM_BOND_UDEF_STEREO_COUNT>
0

> <PUBCHEM_ISOTOPIC_ATOM_COUNT>
0

> <PUBCHEM_COMPONENT_COUNT>
1

> <PUBCHEM_CACTVS_TAUTO_COUNT>
17

> <PUBCHEM_COORDINATE_TYPE>
1
5
255

> <PUBCHEM_BONDANNOTATIONS>
16  17  8
17  18  8
21  26  8
21  27  8
24  28  8
24  29  8
26  28  8
27  29  8
3  16  8
3  19  8
4  17  8
4  20  8
5  18  8
5  19  8
7  18  8
7  20  8

$$$$
509554
  -OEChem-11021605012D

 47 50  0     0  0  0  0  0  0999 V2000
   10.3068   -1.8096    0.0000 O   0  0  0  0  0  0  0  0  0  0  0  0
    6.0174    1.7402    0.0000 N   0  0  0  0  0  0  0  0  0  0  0  0
    6.9350    3.2540    0.0000 N   0  0  0  0  0  0  0  0  0  0  0  0
    6.0290    4.8094    0.0000 N   0  0  0  0  0  0  0  0  0  0  0  0
    2.5369    2.7748    0.0000 N   0  0  0  0  0  0  0  0  0  0  0  0
    6.8660    0.2303    0.0000 C   0  0  0  0  0  0  0  0  0  0  0  0
    6.8776    1.2302    0.0000 C   0  0  0  0  0  0  0  0  0  0  0  0
    7.7262   -0.2797    0.0000 C   0  0  0  0  0  0  0  0  0  0  0  0
    6.0290    2.7401    0.0000 C   0  0  0  0  0  0  0  0  0  0  0  0
    5.1350    3.2748    0.0000 C   0  0  0  0  0  0  0  0  0  0  0  0
    7.7146   -1.2796    0.0000 C   0  0  0  0  0  0  0  0  0  0  0  0
    8.5980    0.2102    0.0000 C   0  0  0  0  0  0  0  0  0  0  0  0
    5.1350    4.2748    0.0000 C   0  0  0  0  0  0  0  0  0  0  0  0
    4.2690    2.7748    0.0000 C   0  0  0  0  0  0  0  0  0  0  0  0
    9.4466   -1.2997    0.0000 C   0  0  0  0  0  0  0  0  0  0  0  0
    8.5748   -1.7896    0.0000 C   0  0  0  0  0  0  0  0  0  0  0  0
    9.4581   -0.2997    0.0000 C   0  0  0  0  0  0  0  0  0  0  0  0
    3.4030    3.2748    0.0000 C   0  0  0  0  0  0  0  0  0  0  0  0
    4.2690    4.7748    0.0000 C   0  0  0  0  0  0  0  0  0  0  0  0
    3.4030    4.2748    0.0000 C   0  0  0  0  0  0  0  0  0  0  0  0
    6.9350    4.2956    0.0000 C   0  0  0  0  0  0  0  0  0  0  0  0
   10.2952   -2.8096    0.0000 C   0  0  0  0  0  0  0  0  0  0  0  0
    9.4234   -3.2995    0.0000 C   0  0  0  0  0  0  0  0  0  0  0  0
   11.1554   -3.3196    0.0000 C   0  0  0  0  0  0  0  0  0  0  0  0
    9.4119   -4.2995    0.0000 C   0  0  0  0  0  0  0  0  0  0  0  0
   11.1438   -4.3195    0.0000 C   0  0  0  0  0  0  0  0  0  0  0  0
   10.2721   -4.8094    0.0000 C   0  0  0  0  0  0  0  0  0  0  0  0
    6.2567    0.3450    0.0000 H   0  0  0  0  0  0  0  0  0  0  0  0
    6.6472   -0.3498    0.0000 H   0  0  0  0  0  0  0  0  0  0  0  0
    7.4869    1.1155    0.0000 H   0  0  0  0  0  0  0  0  0  0  0  0
    7.0964    1.8103    0.0000 H   0  0  0  0  0  0  0  0  0  0  0  0
    5.4769    1.4364    0.0000 H   0  0  0  0  0  0  0  0  0  0  0  0
    7.1742   -1.5834    0.0000 H   0  0  0  0  0  0  0  0  0  0  0  0
    8.6051    0.8302    0.0000 H   0  0  0  0  0  0  0  0  0  0  0  0
    4.2690    2.1548    0.0000 H   0  0  0  0  0  0  0  0  0  0  0  0
    8.5676   -2.4096    0.0000 H   0  0  0  0  0  0  0  0  0  0  0  0
    9.9986    0.0040    0.0000 H   0  0  0  0  0  0  0  0  0  0  0  0
    4.2690    5.3948    0.0000 H   0  0  0  0  0  0  0  0  0  0  0  0
    2.8660    4.5848    0.0000 H   0  0  0  0  0  0  0  0  0  0  0  0
    7.4708    4.6077    0.0000 H   0  0  0  0  0  0  0  0  0  0  0  0
    2.0000    3.0848    0.0000 H   0  0  0  0  0  0  0  0  0  0  0  0
    2.5369    2.1548    0.0000 H   0  0  0  0  0  0  0  0  0  0  0  0
    8.8901   -2.9833    0.0000 H   0  0  0  0  0  0  0  0  0  0  0  0
   11.6959   -3.0158    0.0000 H   0  0  0  0  0  0  0  0  0  0  0  0
    8.8714   -4.6032    0.0000 H   0  0  0  0  0  0  0  0  0  0  0  0
   11.6771   -4.6357    0.0000 H   0  0  0  0  0  0  0  0  0  0  0  0
   10.2649   -5.4294    0.0000 H   0  0  0  0  0  0  0  0  0  0  0  0
  1 15  1  0  0  0  0
  1 22  1  0  0  0  0
  2  7  1  0  0  0  0
  2  9  1  0  0  0  0
  2 32  1  0  0  0  0
  3  9  2  0  0  0  0
  3 21  1  0  0  0  0
  4 13  1  0  0  0  0
  4 21  2  0  0  0  0
  5 18  1  0  0  0  0
  5 41  1  0  0  0  0
  5 42  1  0  0  0  0
  6  7  1  0  0  0  0
  6  8  1  0  0  0  0
  6 28  1  0  0  0  0
  6 29  1  0  0  0  0
  7 30  1  0  0  0  0
  7 31  1  0  0  0  0
  8 11  2  0  0  0  0
  8 12  1  0  0  0  0
  9 10  1  0  0  0  0
 10 13  2  0  0  0  0
 10 14  1  0  0  0  0
 11 16  1  0  0  0  0
 11 33  1  0  0  0  0
 12 17  2  0  0  0  0
 12 34  1  0  0  0  0
 13 19  1  0  0  0  0
 14 18  2  0  0  0  0
 14 35  1  0  0  0  0
 15 16  2  0  0  0  0
 15 17  1  0  0  0  0
 16 36  1  0  0  0  0
 17 37  1  0  0  0  0
 18 20  1  0  0  0  0
 19 20  2  0  0  0  0
 19 38  1  0  0  0  0
 20 39  1  0  0  0  0
 21 40  1  0  0  0  0
 22 23  2  0  0  0  0
 22 24  1  0  0  0  0
 23 25  1  0  0  0  0
 23 43  1  0  0  0  0
 24 26  2  0  0  0  0
 24 44  1  0  0  0  0
 25 27  2  0  0  0  0
 25 45  1  0  0  0  0
 26 27  1  0  0  0  0
 26 46  1  0  0  0  0
 27 47  1  0  0  0  0
M  END
> <PUBCHEM_COMPOUND_CID>
509554

> <PUBCHEM_COMPOUND_CANONICALIZED>
1

> <PUBCHEM_CACTVS_COMPLEXITY>
434

> <PUBCHEM_CACTVS_HBOND_ACCEPTOR>
5

> <PUBCHEM_CACTVS_HBOND_DONOR>
2

> <PUBCHEM_CACTVS_ROTATABLE_BOND>
6

> <PUBCHEM_CACTVS_SUBSKEYS>
AAADceB7oAAAAAAAAAAAAAAAAAAAAAAAAAA8YMEAAAAAAACx9AAAHgAQAAAADAzBngQ19vbIFACgAyZjZACCiCkxIqAJ2KA+bJiMLqLE+duGPCjs0BPI6CeQwIAOIACAQAACAABAAQCAAAQAAAAAAAAAAA==

> <PUBCHEM_IUPAC_OPENEYE_NAME>
N4-[2-(4-phenoxyphenyl)ethyl]quinazoline-4,6-diamine

> <PUBCHEM_IUPAC_CAS_NAME>
N4-[2-(4-phenoxyphenyl)ethyl]quinazoline-4,6-diamine

> <PUBCHEM_IUPAC_NAME>
4-N-[2-(4-phenoxyphenyl)ethyl]quinazoline-4,6-diamine

> <PUBCHEM_IUPAC_SYSTEMATIC_NAME>
N4-[2-(4-phenoxyphenyl)ethyl]quinazoline-4,6-diamine

> <PUBCHEM_IUPAC_TRADITIONAL_NAME>
(6-aminoquinazolin-4-yl)-[2-(4-phenoxyphenyl)ethyl]amine

> <PUBCHEM_IUPAC_INCHI>
InChI=1S/C22H20N4O/c23-17-8-11-21-20(14-17)22(26-15-25-21)24-13-12-16-6-9-19(10-7-16)27-18-4-2-1-3-5-18/h1-11,14-15H,12-13,23H2,(H,24,25,26)

> <PUBCHEM_IUPAC_INCHIKEY>
IBAKVEUZKHOWNG-UHFFFAOYSA-N

> <PUBCHEM_XLOGP3_AA>
4.7

> <PUBCHEM_EXACT_MASS>
356.164

> <PUBCHEM_MOLECULAR_FORMULA>
C22H20N4O

> <PUBCHEM_MOLECULAR_WEIGHT>
356.429

> <PUBCHEM_OPENEYE_CAN_SMILES>
C1=CC=C(C=C1)OC2=CC=C(C=C2)CCNC3=NC=NC4=C3C=C(C=C4)N

> <PUBCHEM_OPENEYE_ISO_SMILES>
C1=CC=C(C=C1)OC2=CC=C(C=C2)CCNC3=NC=NC4=C3C=C(C=C4)N

> <PUBCHEM_CACTVS_TPSA>
73.1

> <PUBCHEM_MONOISOTOPIC_WEIGHT>
356.164

> <PUBCHEM_TOTAL_CHARGE>
0

> <PUBCHEM_HEAVY_ATOM_COUNT>
27

> <PUBCHEM_ATOM_DEF_STEREO_COUNT>
0

> <PUBCHEM_ATOM_UDEF_STEREO_COUNT>
0

> <PUBCHEM_BOND_DEF_STEREO_COUNT>
0

> <PUBCHEM_BOND_UDEF_STEREO_COUNT>
0

> <PUBCHEM_ISOTOPIC_ATOM_COUNT>
0

> <PUBCHEM_COMPONENT_COUNT>
1

> <PUBCHEM_CACTVS_TAUTO_COUNT>
3

> <PUBCHEM_COORDINATE_TYPE>
1
5
255

> <PUBCHEM_BONDANNOTATIONS>
10  13  8
10  14  8
11  16  8
12  17  8
13  19  8
14  18  8
15  16  8
15  17  8
18  20  8
19  20  8
22  23  8
22  24  8
23  25  8
24  26  8
25  27  8
26  27  8
3  21  8
3  9  8
4  13  8
4  21  8
8  11  8
8  12  8
9  10  8

$$$$
9797798
  -OEChem-11021605012D

 35 36  0     0  0  0  0  0  0999 V2000
    6.3301    0.1900    0.0000 S   0  0  0  0  0  0  0  0  0  0  0  0
    2.0000   -0.3100    0.0000 F   0  0  0  0  0  0  0  0  0  0  0  0
    2.3660   -1.6760    0.0000 F   0  0  0  0  0  0  0  0  0  0  0  0
    3.3660    0.0560    0.0000 F   0  0  0  0  0  0  0  0  0  0  0  0
    5.4641    1.6900    0.0000 N   0  0  0  0  0  0  0  0  0  0  0  0
    9.7942    2.1900    0.0000 N   0  0  0  0  0  0  0  0  0  0  0  0
    2.8660    1.1900    0.0000 N   0  0  0  0  0  0  0  0  0  0  0  0
    4.5981   -0.8100    0.0000 C   0  0  0  0  0  0  0  0  0  0  0  0
    3.7320   -1.3100    0.0000 C   0  0  0  0  0  0  0  0  0  0  0  0
    4.5981    0.1900    0.0000 C   0  0  0  0  0  0  0  0  0  0  0  0
    5.4641   -1.3100    0.0000 C   0  0  0  0  0  0  0  0  0  0  0  0
    3.7320   -2.3100    0.0000 C   0  0  0  0  0  0  0  0  0  0  0  0
    2.8660   -0.8100    0.0000 C   0  0  0  0  0  0  0  0  0  0  0  0
    5.4641    0.6900    0.0000 C   0  0  0  0  0  0  0  0  0  0  0  0
    5.4641   -2.3100    0.0000 C   0  0  0  0  0  0  0  0  0  0  0  0
    4.5981   -2.8100    0.0000 C   0  0  0  0  0  0  0  0  0  0  0  0
    7.1962    0.6900    0.0000 C   0  0  0  0  0  0  0  0  0  0  0  0
    8.0622    0.1900    0.0000 C   0  0  0  0  0  0  0  0  0  0  0  0
    7.1962    1.6900    0.0000 C   0  0  0  0  0  0  0  0  0  0  0  0
    8.9282    1.6900    0.0000 C   0  0  0  0  0  0  0  0  0  0  0  0
    8.9282    0.6900    0.0000 C   0  0  0  0  0  0  0  0  0  0  0  0
    8.0622    2.1900    0.0000 C   0  0  0  0  0  0  0  0  0  0  0  0
    3.7320    0.6900    0.0000 C   0  0  0  0  0  0  0  0  0  0  0  0
    6.0010   -1.0000    0.0000 H   0  0  0  0  0  0  0  0  0  0  0  0
    3.1951   -2.6200    0.0000 H   0  0  0  0  0  0  0  0  0  0  0  0
    6.0010   -2.6200    0.0000 H   0  0  0  0  0  0  0  0  0  0  0  0
    4.5981   -3.4300    0.0000 H   0  0  0  0  0  0  0  0  0  0  0  0
    8.0622   -0.4300    0.0000 H   0  0  0  0  0  0  0  0  0  0  0  0
    6.6592    2.0000    0.0000 H   0  0  0  0  0  0  0  0  0  0  0  0
    9.4651    0.3800    0.0000 H   0  0  0  0  0  0  0  0  0  0  0  0
    8.0622    2.8100    0.0000 H   0  0  0  0  0  0  0  0  0  0  0  0
    4.9272    2.0000    0.0000 H   0  0  0  0  0  0  0  0  0  0  0  0
    6.0010    2.0000    0.0000 H   0  0  0  0  0  0  0  0  0  0  0  0
   10.3312    1.8800    0.0000 H   0  0  0  0  0  0  0  0  0  0  0  0
    9.7942    2.8100    0.0000 H   0  0  0  0  0  0  0  0  0  0  0  0
  1 14  1  0  0  0  0
  1 17  1  0  0  0  0
  2 13  1  0  0  0  0
  3 13  1  0  0  0  0
  4 13  1  0  0  0  0
  5 14  1  0  0  0  0
  5 32  1  0  0  0  0
  5 33  1  0  0  0  0
  6 20  1  0  0  0  0
  6 34  1  0  0  0  0
  6 35  1  0  0  0  0
  7 23  3  0  0  0  0
  8  9  1  0  0  0  0
  8 10  1  0  0  0  0
  8 11  2  0  0  0  0
  9 12  2  0  0  0  0
  9 13  1  0  0  0  0
 10 14  2  0  0  0  0
 10 23  1  0  0  0  0
 11 15  1  0  0  0  0
 11 24  1  0  0  0  0
 12 16  1  0  0  0  0
 12 25  1  0  0  0  0
 15 16  2  0  0  0  0
 15 26  1  0  0  0  0
 16 27  1  0  0  0  0
 17 18  2  0  0  0  0
 17 19  1  0  0  0  0
 18 21  1  0  0  0  0
 18 28  1  0  0  0  0
 19 22  2  0  0  0  0
 19 29  1  0  0  0  0
 20 21  2  0  0  0  0
 20 22  1  0  0  0  0
 21 30  1  0  0  0  0
 22 31  1  0  0  0  0
M  END
> <PUBCHEM_COMPOUND_CID>
9797798

> <PUBCHEM_COMPOUND_CANONICALIZED>
1

> <PUBCHEM_CACTVS_COMPLEXITY>
487

> <PUBCHEM_CACTVS_HBOND_ACCEPTOR>
7

> <PUBCHEM_CACTVS_HBOND_DONOR>
2

> <PUBCHEM_CACTVS_ROTATABLE_BOND>
3

> <PUBCHEM_CACTVS_SUBSKEYS>
AAADccB7AYBAAAAAAAAAAAAAAAAAAAAAAAAwYAAAAAAAAAABQAAAHQQQAAAADAiBWBAwwYBAAAiQBiRCQACiAABgChAIiBgAZIgIoCKgkZGAIABgkAAIyA8QgIAOgAQAAAAQAAAACAAAACAAAAAAAAAAAA==

> <PUBCHEM_IUPAC_OPENEYE_NAME>
(E)-3-amino-3-(4-aminophenyl)sulfanyl-2-[2-(trifluoromethyl)phenyl]prop-2-enenitrile

> <PUBCHEM_IUPAC_CAS_NAME>
(E)-3-amino-3-[(4-aminophenyl)thio]-2-[2-(trifluoromethyl)phenyl]-2-propenenitrile

> <PUBCHEM_IUPAC_NAME>
(E)-3-amino-3-(4-aminophenyl)sulfanyl-2-[2-(trifluoromethyl)phenyl]prop-2-enenitrile

> <PUBCHEM_IUPAC_SYSTEMATIC_NAME>
(E)-3-(4-aminophenyl)sulfanyl-3-azanyl-2-[2-(trifluoromethyl)phenyl]prop-2-enenitrile

> <PUBCHEM_IUPAC_TRADITIONAL_NAME>
(E)-3-amino-3-[(4-aminophenyl)thio]-2-[2-(trifluoromethyl)phenyl]acrylonitrile

> <PUBCHEM_IUPAC_INCHI>
InChI=1S/C16H12F3N3S/c17-16(18,19)14-4-2-1-3-12(14)13(9-20)15(22)23-11-7-5-10(21)6-8-11/h1-8H,21-22H2/b15-13-

> <PUBCHEM_IUPAC_INCHIKEY>
JLOXTZFYJNCPIS-SQFISAMPSA-N

> <PUBCHEM_XLOGP3_AA>
3.7

> <PUBCHEM_EXACT_MASS>
335.07

> <PUBCHEM_MOLECULAR_FORMULA>
C16H12F3N3S

> <PUBCHEM_MOLECULAR_WEIGHT>
335.348

> <PUBCHEM_OPENEYE_CAN_SMILES>
C1=CC=C(C(=C1)C(=C(N)SC2=CC=C(C=C2)N)C#N)C(F)(F)F

> <PUBCHEM_OPENEYE_ISO_SMILES>
C1=CC=C(C(=C1)/C(=C(/N)\SC2=CC=C(C=C2)N)/C#N)C(F)(F)F

> <PUBCHEM_CACTVS_TPSA>
101

> <PUBCHEM_MONOISOTOPIC_WEIGHT>
335.07

> <PUBCHEM_TOTAL_CHARGE>
0

> <PUBCHEM_HEAVY_ATOM_COUNT>
23

> <PUBCHEM_ATOM_DEF_STEREO_COUNT>
0

> <PUBCHEM_ATOM_UDEF_STEREO_COUNT>
0

> <PUBCHEM_BOND_DEF_STEREO_COUNT>
1

> <PUBCHEM_BOND_UDEF_STEREO_COUNT>
0

> <PUBCHEM_ISOTOPIC_ATOM_COUNT>
0

> <PUBCHEM_COMPONENT_COUNT>
1

> <PUBCHEM_CACTVS_TAUTO_COUNT>
2

> <PUBCHEM_COORDINATE_TYPE>
1
5
255

> <PUBCHEM_BONDANNOTATIONS>
11  15  8
12  16  8
15  16  8
17  18  8
17  19  8
18  21  8
19  22  8
20  21  8
20  22  8
8  11  8
8  9  8
9  12  8

$$$$
5005498
  -OEChem-11021605012D

 33 36  0     0  0  0  0  0  0999 V2000
    5.7646    2.5713    0.0000 O   0  0  0  0  0  0  0  0  0  0  0  0
    2.0000   -2.4540    0.0000 O   0  5  0  0  0  0  0  0  0  0  0  0
    2.0570   -0.7229    0.0000 O   0  0  0  0  0  0  0  0  0  0  0  0
    6.5625   -1.5050    0.0000 N   0  0  0  0  0  0  0  0  0  0  0  0
    7.1985    1.6703    0.0000 N   0  0  0  0  0  0  0  0  0  0  0  0
    2.5282   -1.6049    0.0000 N   0  3  0  0  0  0  0  0  0  0  0  0
    5.7976   -0.0864    0.0000 C   0  0  0  0  0  0  0  0  0  0  0  0
    6.6985   -0.5203    0.0000 C   0  0  0  0  0  0  0  0  0  0  0  0
    5.1125   -0.8067    0.0000 C   0  0  0  0  0  0  0  0  0  0  0  0
    5.5843   -1.6817    0.0000 C   0  0  0  0  0  0  0  0  0  0  0  0
    5.5750    0.8885    0.0000 C   0  0  0  0  0  0  0  0  0  0  0  0
    7.5995   -0.0864    0.0000 C   0  0  0  0  0  0  0  0  0  0  0  0
    7.8220    0.8885    0.0000 C   0  0  0  0  0  0  0  0  0  0  0  0
    4.0780   -0.7607    0.0000 C   0  0  0  0  0  0  0  0  0  0  0  0
    6.1985    1.6703    0.0000 C   0  0  0  0  0  0  0  0  0  0  0  0
    5.0544   -2.5713    0.0000 C   0  0  0  0  0  0  0  0  0  0  0  0
    8.3521   -0.8066    0.0000 C   0  0  0  0  0  0  0  0  0  0  0  0
    3.5277   -1.6378    0.0000 C   0  0  0  0  0  0  0  0  0  0  0  0
    4.0192   -2.5492    0.0000 C   0  0  0  0  0  0  0  0  0  0  0  0
    8.8125    1.2108    0.0000 C   0  0  0  0  0  0  0  0  0  0  0  0
    9.3498   -0.5073    0.0000 C   0  0  0  0  0  0  0  0  0  0  0  0
    9.5815    0.5082    0.0000 C   0  0  0  0  0  0  0  0  0  0  0  0
    5.1885    1.3732    0.0000 H   0  0  0  0  0  0  0  0  0  0  0  0
    5.0164    0.6195    0.0000 H   0  0  0  0  0  0  0  0  0  0  0  0
    7.0099   -1.9343    0.0000 H   0  0  0  0  0  0  0  0  0  0  0  0
    3.7901   -0.2116    0.0000 H   0  0  0  0  0  0  0  0  0  0  0  0
    5.3549   -3.1136    0.0000 H   0  0  0  0  0  0  0  0  0  0  0  0
    7.4676    2.2289    0.0000 H   0  0  0  0  0  0  0  0  0  0  0  0
    8.2071   -1.4094    0.0000 H   0  0  0  0  0  0  0  0  0  0  0  0
    3.6957   -3.0782    0.0000 H   0  0  0  0  0  0  0  0  0  0  0  0
    8.9435    1.8168    0.0000 H   0  0  0  0  0  0  0  0  0  0  0  0
    9.8026   -0.9307    0.0000 H   0  0  0  0  0  0  0  0  0  0  0  0
   10.1733    0.6933    0.0000 H   0  0  0  0  0  0  0  0  0  0  0  0
  1 15  2  0  0  0  0
  2  6  1  0  0  0  0
  3  6  2  0  0  0  0
  4  8  1  0  0  0  0
  4 10  1  0  0  0  0
  4 25  1  0  0  0  0
  5 13  1  0  0  0  0
  5 15  1  0  0  0  0
  5 28  1  0  0  0  0
  6 18  1  0  0  0  0
  7  8  2  0  0  0  0
  7  9  1  0  0  0  0
  7 11  1  0  0  0  0
  8 12  1  0  0  0  0
  9 10  2  0  0  0  0
  9 14  1  0  0  0  0
 10 16  1  0  0  0  0
 11 15  1  0  0  0  0
 11 23  1  0  0  0  0
 11 24  1  0  0  0  0
 12 13  1  0  0  0  0
 12 17  2  0  0  0  0
 13 20  2  0  0  0  0
 14 18  2  0  0  0  0
 14 26  1  0  0  0  0
 16 19  2  0  0  0  0
 16 27  1  0  0  0  0
 17 21  1  0  0  0  0
 17 29  1  0  0  0  0
 18 19  1  0  0  0  0
 19 30  1  0  0  0  0
 20 22  1  0  0  0  0
 20 31  1  0  0  0  0
 21 22  2  0  0  0  0
 21 32  1  0  0  0  0
 22 33  1  0  0  0  0
M  CHG  2   2  -1   6   1
M  END
> <PUBCHEM_COMPOUND_CID>
5005498

> <PUBCHEM_COMPOUND_CANONICALIZED>
1

> <PUBCHEM_CACTVS_COMPLEXITY>
478

> <PUBCHEM_CACTVS_HBOND_ACCEPTOR>
3

> <PUBCHEM_CACTVS_HBOND_DONOR>
2

> <PUBCHEM_CACTVS_ROTATABLE_BOND>
0

> <PUBCHEM_CACTVS_SUBSKEYS>
AAADccB7MAAAAAAAAAAAAAAAAAAAAWAAAAAwYAAABYAAAFix9AAAHgAUAAAADAiBngAwwPLZ0ACpAyVyVwCCgCAhAiAomSEwZJoIIPLA1ZGEIAhglADIyAccicCegACAQAACAAAAAQCAAAQAAAAAAAAAAA==

> <PUBCHEM_IUPAC_OPENEYE_NAME>
9-nitro-7,12-dihydro-5H-indolo[3,2-d][1]benzazepin-6-one

> <PUBCHEM_IUPAC_CAS_NAME>
9-nitro-7,12-dihydro-5H-indolo[3,2-d][1]benzazepin-6-one

> <PUBCHEM_IUPAC_NAME>
9-nitro-7,12-dihydro-5H-indolo[3,2-d][1]benzazepin-6-one

> <PUBCHEM_IUPAC_SYSTEMATIC_NAME>
9-nitro-7,12-dihydro-5H-indolo[3,2-d][1]benzazepin-6-one

> <PUBCHEM_IUPAC_TRADITIONAL_NAME>
9-nitro-7,12-dihydro-5H-indolo[3,2-d][1]benzazepin-6-one

> <PUBCHEM_IUPAC_INCHI>
InChI=1S/C16H11N3O3/c20-15-8-12-11-7-9(19(21)22)5-6-14(11)18-16(12)10-3-1-2-4-13(10)17-15/h1-7,18H,8H2,(H,17,20)

> <PUBCHEM_IUPAC_INCHIKEY>
OLUKILHGKRVDCT-UHFFFAOYSA-N

> <PUBCHEM_XLOGP3_AA>
2.4

> <PUBCHEM_EXACT_MASS>
293.08

> <PUBCHEM_MOLECULAR_FORMULA>
C16H11N3O3

> <PUBCHEM_MOLECULAR_WEIGHT>
293.282

> <PUBCHEM_OPENEYE_CAN_SMILES>
C1C2=C(C3=CC=CC=C3NC1=O)NC4=C2C=C(C=C4)[N+](=O)[O-]

> <PUBCHEM_OPENEYE_ISO_SMILES>
C1C2=C(C3=CC=CC=C3NC1=O)NC4=C2C=C(C=C4)[N+](=O)[O-]

> <PUBCHEM_CACTVS_TPSA>
90.7

> <PUBCHEM_MONOISOTOPIC_WEIGHT>
293.08

> <PUBCHEM_TOTAL_CHARGE>
0

> <PUBCHEM_HEAVY_ATOM_COUNT>
22

> <PUBCHEM_ATOM_DEF_STEREO_COUNT>
0

> <PUBCHEM_ATOM_UDEF_STEREO_COUNT>
0

> <PUBCHEM_BOND_DEF_STEREO_COUNT>
0

> <PUBCHEM_BOND_UDEF_STEREO_COUNT>
0

> <PUBCHEM_ISOTOPIC_ATOM_COUNT>
0

> <PUBCHEM_COMPONENT_COUNT>
1

> <PUBCHEM_CACTVS_TAUTO_COUNT>
3

> <PUBCHEM_COORDINATE_TYPE>
1
5
255

> <PUBCHEM_BONDANNOTATIONS>
10  16  8
12  13  8
12  17  8
13  20  8
14  18  8
16  19  8
17  21  8
18  19  8
20  22  8
21  22  8
4  10  8
4  8  8
7  8  8
7  9  8
9  10  8
9  14  8

$$$$
11624601
  -OEChem-11021605012D

 46 47  0     0  0  0  0  0  0999 V2000
    5.4641   -1.4050    0.0000 O   0  0  0  0  0  0  0  0  0  0  0  0
    2.0000   -3.4050    0.0000 O   0  0  0  0  0  0  0  0  0  0  0  0
    8.0622    1.0950    0.0000 O   0  0  0  0  0  0  0  0  0  0  0  0
    5.4641   -0.4050    0.0000 O   0  0  0  0  0  0  0  0  0  0  0  0
    4.5981    1.0950    0.0000 N   0  0  0  0  0  0  0  0  0  0  0  0
    6.3301    1.0950    0.0000 N   0  0  0  0  0  0  0  0  0  0  0  0
    6.3301    4.0950    0.0000 N   0  0  0  0  0  0  0  0  0  0  0  0
    8.9282    3.5950    0.0000 N   0  0  0  0  0  0  0  0  0  0  0  0
    3.7320   -1.4050    0.0000 C   0  0  0  0  0  0  0  0  0  0  0  0
    3.7320   -0.4050    0.0000 C   0  0  0  0  0  0  0  0  0  0  0  0
    4.5981   -1.9050    0.0000 C   0  0  0  0  0  0  0  0  0  0  0  0
    2.8660   -1.9050    0.0000 C   0  0  0  0  0  0  0  0  0  0  0  0
    4.5981    0.0950    0.0000 C   0  0  0  0  0  0  0  0  0  0  0  0
    2.8660   -2.9050    0.0000 C   0  0  0  0  0  0  0  0  0  0  0  0
    4.5981   -2.9050    0.0000 C   0  0  0  0  0  0  0  0  0  0  0  0
    5.4641    1.5950    0.0000 C   0  0  0  0  0  0  0  0  0  0  0  0
    3.7320   -3.4050    0.0000 C   0  0  0  0  0  0  0  0  0  0  0  0
    5.4641    2.5950    0.0000 C   0  0  0  0  0  0  0  0  0  0  0  0
    6.3301    3.0950    0.0000 C   0  0  0  0  0  0  0  0  0  0  0  0
    7.1962    1.5950    0.0000 C   0  0  0  0  0  0  0  0  0  0  0  0
    7.1962    2.5950    0.0000 C   0  0  0  0  0  0  0  0  0  0  0  0
    8.0622    0.0950    0.0000 C   0  0  0  0  0  0  0  0  0  0  0  0
    6.3301   -1.9050    0.0000 C   0  0  0  0  0  0  0  0  0  0  0  0
    2.0000   -4.4050    0.0000 C   0  0  0  0  0  0  0  0  0  0  0  0
    8.9282   -0.4050    0.0000 C   0  0  0  0  0  0  0  0  0  0  0  0
    8.0622    3.0950    0.0000 C   0  0  0  0  0  0  0  0  0  0  0  0
    3.5200    0.1776    0.0000 H   0  0  0  0  0  0  0  0  0  0  0  0
    3.1215   -0.5127    0.0000 H   0  0  0  0  0  0  0  0  0  0  0  0
    2.3291   -1.5950    0.0000 H   0  0  0  0  0  0  0  0  0  0  0  0
    5.1350   -3.2150    0.0000 H   0  0  0  0  0  0  0  0  0  0  0  0
    4.0611    1.4050    0.0000 H   0  0  0  0  0  0  0  0  0  0  0  0
    3.7320   -4.0250    0.0000 H   0  0  0  0  0  0  0  0  0  0  0  0
    4.9272    2.9050    0.0000 H   0  0  0  0  0  0  0  0  0  0  0  0
    7.4516    0.2027    0.0000 H   0  0  0  0  0  0  0  0  0  0  0  0
    7.8501   -0.4876    0.0000 H   0  0  0  0  0  0  0  0  0  0  0  0
    6.0201   -2.4419    0.0000 H   0  0  0  0  0  0  0  0  0  0  0  0
    6.8671   -2.2150    0.0000 H   0  0  0  0  0  0  0  0  0  0  0  0
    6.6401   -1.3681    0.0000 H   0  0  0  0  0  0  0  0  0  0  0  0
    5.7932    4.4050    0.0000 H   0  0  0  0  0  0  0  0  0  0  0  0
    6.8671    4.4050    0.0000 H   0  0  0  0  0  0  0  0  0  0  0  0
    1.3800   -4.4050    0.0000 H   0  0  0  0  0  0  0  0  0  0  0  0
    2.0000   -5.0250    0.0000 H   0  0  0  0  0  0  0  0  0  0  0  0
    2.6200   -4.4050    0.0000 H   0  0  0  0  0  0  0  0  0  0  0  0
    8.6182   -0.9419    0.0000 H   0  0  0  0  0  0  0  0  0  0  0  0
    9.4651   -0.7150    0.0000 H   0  0  0  0  0  0  0  0  0  0  0  0
    9.2382    0.1319    0.0000 H   0  0  0  0  0  0  0  0  0  0  0  0
  1 11  1  0  0  0  0
  1 23  1  0  0  0  0
  2 14  1  0  0  0  0
  2 24  1  0  0  0  0
  3 20  1  0  0  0  0
  3 22  1  0  0  0  0
  4 13  2  0  0  0  0
  5 13  1  0  0  0  0
  5 16  1  0  0  0  0
  5 31  1  0  0  0  0
  6 16  2  0  0  0  0
  6 20  1  0  0  0  0
  7 19  1  0  0  0  0
  7 39  1  0  0  0  0
  7 40  1  0  0  0  0
  8 26  3  0  0  0  0
  9 10  1  0  0  0  0
  9 11  2  0  0  0  0
  9 12  1  0  0  0  0
 10 13  1  0  0  0  0
 10 27  1  0  0  0  0
 10 28  1  0  0  0  0
 11 15  1  0  0  0  0
 12 14  2  0  0  0  0
 12 29  1  0  0  0  0
 14 17  1  0  0  0  0
 15 17  2  0  0  0  0
 15 30  1  0  0  0  0
 16 18  1  0  0  0  0
 17 32  1  0  0  0  0
 18 19  2  0  0  0  0
 18 33  1  0  0  0  0
 19 21  1  0  0  0  0
 20 21  2  0  0  0  0
 21 26  1  0  0  0  0
 22 25  1  0  0  0  0
 22 34  1  0  0  0  0
 22 35  1  0  0  0  0
 23 36  1  0  0  0  0
 23 37  1  0  0  0  0
 23 38  1  0  0  0  0
 24 41  1  0  0  0  0
 24 42  1  0  0  0  0
 24 43  1  0  0  0  0
 25 44  1  0  0  0  0
 25 45  1  0  0  0  0
 25 46  1  0  0  0  0
M  END
> <PUBCHEM_COMPOUND_CID>
11624601

> <PUBCHEM_COMPOUND_CANONICALIZED>
1

> <PUBCHEM_CACTVS_COMPLEXITY>
509

> <PUBCHEM_CACTVS_HBOND_ACCEPTOR>
7

> <PUBCHEM_CACTVS_HBOND_DONOR>
2

> <PUBCHEM_CACTVS_ROTATABLE_BOND>
7

> <PUBCHEM_CACTVS_SUBSKEYS>
AAADceB7uAAAAAAAAAAAAAAAAAAAAAAAAAA8QAAAAAAAAAABwAAAHgAQAAAADAyhmgIz9pLIFAC4BidydACiiCkhIiAJmCE2bJiMpnLE/duOPCju1RvI6C/63LLOAQABAAAIAAACAAIAABAAAAAAAAAAAA==

> <PUBCHEM_IUPAC_OPENEYE_NAME>
N-(4-amino-5-cyano-6-ethoxy-2-pyridyl)-2-(2,5-dimethoxyphenyl)acetamide

> <PUBCHEM_IUPAC_CAS_NAME>
N-(4-amino-5-cyano-6-ethoxy-2-pyridinyl)-2-(2,5-dimethoxyphenyl)acetamide

> <PUBCHEM_IUPAC_NAME>
N-(4-amino-5-cyano-6-ethoxypyridin-2-yl)-2-(2,5-dimethoxyphenyl)acetamide

> <PUBCHEM_IUPAC_SYSTEMATIC_NAME>
N-(4-azanyl-5-cyano-6-ethoxy-pyridin-2-yl)-2-(2,5-dimethoxyphenyl)ethanamide

> <PUBCHEM_IUPAC_TRADITIONAL_NAME>
N-(4-amino-5-cyano-6-ethoxy-2-pyridyl)-2-(2,5-dimethoxyphenyl)acetamide

> <PUBCHEM_IUPAC_INCHI>
InChI=1S/C18H20N4O4/c1-4-26-18-13(10-19)14(20)9-16(22-18)21-17(23)8-11-7-12(24-2)5-6-15(11)25-3/h5-7,9H,4,8H2,1-3H3,(H3,20,21,22,23)

> <PUBCHEM_IUPAC_INCHIKEY>
KQMPRSZTUSSXND-UHFFFAOYSA-N

> <PUBCHEM_XLOGP3_AA>
2.2

> <PUBCHEM_EXACT_MASS>
356.148

> <PUBCHEM_MOLECULAR_FORMULA>
C18H20N4O4

> <PUBCHEM_MOLECULAR_WEIGHT>
356.382

> <PUBCHEM_OPENEYE_CAN_SMILES>
CCOC1=C(C(=CC(=N1)NC(=O)CC2=C(C=CC(=C2)OC)OC)N)C#N

> <PUBCHEM_OPENEYE_ISO_SMILES>
CCOC1=C(C(=CC(=N1)NC(=O)CC2=C(C=CC(=C2)OC)OC)N)C#N

> <PUBCHEM_CACTVS_TPSA>
120

> <PUBCHEM_MONOISOTOPIC_WEIGHT>
356.148

> <PUBCHEM_TOTAL_CHARGE>
0

> <PUBCHEM_HEAVY_ATOM_COUNT>
26

> <PUBCHEM_ATOM_DEF_STEREO_COUNT>
0

> <PUBCHEM_ATOM_UDEF_STEREO_COUNT>
0

> <PUBCHEM_BOND_DEF_STEREO_COUNT>
0

> <PUBCHEM_BOND_UDEF_STEREO_COUNT>
0

> <PUBCHEM_ISOTOPIC_ATOM_COUNT>
0

> <PUBCHEM_COMPONENT_COUNT>
1

> <PUBCHEM_CACTVS_TAUTO_COUNT>
22

> <PUBCHEM_COORDINATE_TYPE>
1
5
255

> <PUBCHEM_BONDANNOTATIONS>
11  15  8
12  14  8
14  17  8
15  17  8
16  18  8
18  19  8
19  21  8
20  21  8
6  16  8
6  20  8
9  11  8
9  12  8

$$$$
3467590
  -OEChem-11021605012D

 34 38  0     0  0  0  0  0  0999 V2000
    3.5134    1.2116    0.0000 O   0  0  0  0  0  0  0  0  0  0  0  0
    9.6436    0.7391    0.0000 O   0  0  0  0  0  0  0  0  0  0  0  0
    8.7718    2.2358    0.0000 O   0  0  0  0  0  0  0  0  0  0  0  0
    4.3795   -0.2884    0.0000 N   0  0  0  0  0  0  0  0  0  0  0  0
    5.0363   -1.7602    0.0000 N   0  0  0  0  0  0  0  0  0  0  0  0
    6.1115    0.7116    0.0000 C   0  0  0  0  0  0  0  0  0  0  0  0
    6.1115   -0.2884    0.0000 C   0  0  0  0  0  0  0  0  0  0  0  0
    5.2455   -0.7884    0.0000 C   0  0  0  0  0  0  0  0  0  0  0  0
    5.2455    1.2116    0.0000 C   0  0  0  0  0  0  0  0  0  0  0  0
    7.0055    1.2463    0.0000 C   0  0  0  0  0  0  0  0  0  0  0  0
    3.6425   -0.9555    0.0000 C   0  0  0  0  0  0  0  0  0  0  0  0
    4.3795    0.7116    0.0000 C   0  0  0  0  0  0  0  0  0  0  0  0
    4.0476   -1.8632    0.0000 C   0  0  0  0  0  0  0  0  0  0  0  0
    7.0055   -0.8230    0.0000 C   0  0  0  0  0  0  0  0  0  0  0  0
    7.9115    0.7324    0.0000 C   0  0  0  0  0  0  0  0  0  0  0  0
    5.2442    2.2033    0.0000 C   0  0  0  0  0  0  0  0  0  0  0  0
    6.9677    2.2373    0.0000 C   0  0  0  0  0  0  0  0  0  0  0  0
    7.9115   -0.3092    0.0000 C   0  0  0  0  0  0  0  0  0  0  0  0
    6.0963    2.7108    0.0000 C   0  0  0  0  0  0  0  0  0  0  0  0
    2.6144   -0.8323    0.0000 C   0  0  0  0  0  0  0  0  0  0  0  0
    3.4527   -2.7108    0.0000 C   0  0  0  0  0  0  0  0  0  0  0  0
    2.0000   -1.6658    0.0000 C   0  0  0  0  0  0  0  0  0  0  0  0
    2.4220   -2.6114    0.0000 C   0  0  0  0  0  0  0  0  0  0  0  0
    8.7756    1.2358    0.0000 C   0  0  0  0  0  0  0  0  0  0  0  0
    6.9983   -1.4430    0.0000 H   0  0  0  0  0  0  0  0  0  0  0  0
    4.7050    2.5093    0.0000 H   0  0  0  0  0  0  0  0  0  0  0  0
    7.4944    2.5643    0.0000 H   0  0  0  0  0  0  0  0  0  0  0  0
    8.4473   -0.6213    0.0000 H   0  0  0  0  0  0  0  0  0  0  0  0
    2.3683   -0.2632    0.0000 H   0  0  0  0  0  0  0  0  0  0  0  0
    6.0841    3.3306    0.0000 H   0  0  0  0  0  0  0  0  0  0  0  0
    3.7119   -3.2740    0.0000 H   0  0  0  0  0  0  0  0  0  0  0  0
    1.3836   -1.5991    0.0000 H   0  0  0  0  0  0  0  0  0  0  0  0
    2.0599   -3.1147    0.0000 H   0  0  0  0  0  0  0  0  0  0  0  0
   10.1793    1.0512    0.0000 H   0  0  0  0  0  0  0  0  0  0  0  0
  1 12  2  0  0  0  0
  2 24  1  0  0  0  0
  2 34  1  0  0  0  0
  3 24  2  0  0  0  0
  4  8  1  0  0  0  0
  4 11  1  0  0  0  0
  4 12  1  0  0  0  0
  5  8  2  0  0  0  0
  5 13  1  0  0  0  0
  6  7  2  0  0  0  0
  6  9  1  0  0  0  0
  6 10  1  0  0  0  0
  7  8  1  0  0  0  0
  7 14  1  0  0  0  0
  9 12  1  0  0  0  0
  9 16  2  0  0  0  0
 10 15  2  0  0  0  0
 10 17  1  0  0  0  0
 11 13  1  0  0  0  0
 11 20  2  0  0  0  0
 13 21  2  0  0  0  0
 14 18  2  0  0  0  0
 14 25  1  0  0  0  0
 15 18  1  0  0  0  0
 15 24  1  0  0  0  0
 16 19  1  0  0  0  0
 16 26  1  0  0  0  0
 17 19  2  0  0  0  0
 17 27  1  0  0  0  0
 18 28  1  0  0  0  0
 19 30  1  0  0  0  0
 20 22  1  0  0  0  0
 20 29  1  0  0  0  0
 21 23  1  0  0  0  0
 21 31  1  0  0  0  0
 22 23  2  0  0  0  0
 22 32  1  0  0  0  0
 23 33  1  0  0  0  0
M  END
> <PUBCHEM_COMPOUND_CID>
3467590

> <PUBCHEM_COMPOUND_CANONICALIZED>
1

> <PUBCHEM_CACTVS_COMPLEXITY>
565

> <PUBCHEM_CACTVS_HBOND_ACCEPTOR>
4

> <PUBCHEM_CACTVS_HBOND_DONOR>
1

> <PUBCHEM_CACTVS_ROTATABLE_BOND>
1

> <PUBCHEM_CACTVS_SUBSKEYS>
AAADccB7MAAAAAAAAAAAAAAAAAAAAWAAAAA8YMEAAAAAAFjx9AAAHgAACAAADAiBnwAx2PcMEgCoAyfyfACCgC0lEqAJmCEwfNiIbrLAnZGUcQhsxQPI2aeYyfCOwAACAAAQACCAAAQAACAAQAAAAAAAAA==

> <PUBCHEM_IUPAC_INCHI>
InChI=1S/C19H10N2O3/c22-18-13-5-3-4-10-11(19(23)24)8-9-12(16(10)13)17-20-14-6-1-2-7-15(14)21(17)18/h1-9H,(H,23,24)

> <PUBCHEM_IUPAC_INCHIKEY>
MYKOWOGZBMOVBJ-UHFFFAOYSA-N

> <PUBCHEM_XLOGP3_AA>
3.5

> <PUBCHEM_EXACT_MASS>
314.069

> <PUBCHEM_MOLECULAR_FORMULA>
C19H10N2O3

> <PUBCHEM_MOLECULAR_WEIGHT>
314.3

> <PUBCHEM_OPENEYE_CAN_SMILES>
C1=CC=C2C(=C1)N=C3N2C(=O)C4=CC=CC5=C(C=CC3=C54)C(=O)O

> <PUBCHEM_OPENEYE_ISO_SMILES>
C1=CC=C2C(=C1)N=C3N2C(=O)C4=CC=CC5=C(C=CC3=C54)C(=O)O

> <PUBCHEM_CACTVS_TPSA>
72.2

> <PUBCHEM_MONOISOTOPIC_WEIGHT>
314.069

> <PUBCHEM_TOTAL_CHARGE>
0

> <PUBCHEM_HEAVY_ATOM_COUNT>
24

> <PUBCHEM_ATOM_DEF_STEREO_COUNT>
0

> <PUBCHEM_ATOM_UDEF_STEREO_COUNT>
0

> <PUBCHEM_BOND_DEF_STEREO_COUNT>
0

> <PUBCHEM_BOND_UDEF_STEREO_COUNT>
0

> <PUBCHEM_ISOTOPIC_ATOM_COUNT>
0

> <PUBCHEM_COMPONENT_COUNT>
1

> <PUBCHEM_CACTVS_TAUTO_COUNT>
1

> <PUBCHEM_COORDINATE_TYPE>
1
5
255

> <PUBCHEM_BONDANNOTATIONS>
10  15  8
10  17  8
11  13  8
11  20  8
13  21  8
14  18  8
15  18  8
16  19  8
17  19  8
20  22  8
21  23  8
22  23  8
4  11  8
4  12  8
4  8  8
5  13  8
5  8  8
6  10  8
6  7  8
6  9  8
7  14  8
7  8  8
9  12  8
9  16  8

$$$$
45481524
  -OEChem-11021605012D

 27 29  0     1  0  0  0  0  0999 V2000
    8.9030    1.5210    0.0000 F   0  0  0  0  0  0  0  0  0  0  0  0
    4.9889    0.6961    0.0000 N   0  0  0  0  0  0  0  0  0  0  0  0
    5.2619   -1.0591    0.0000 N   0  0  0  0  0  0  0  0  0  0  0  0
    4.6783   -1.8638    0.0000 N   0  0  0  0  0  0  0  0  0  0  0  0
    2.8660   -2.0591    0.0000 N   0  0  0  0  0  0  0  0  0  0  0  0
    2.0000   -0.5591    0.0000 N   0  0  0  0  0  0  0  0  0  0  0  0
    2.8660    0.9409    0.0000 N   0  0  0  0  0  0  0  0  0  0  0  0
    4.6783   -0.2544    0.0000 C   0  0  3  0  0  0  0  0  0  0  0  0
    3.7320   -0.5591    0.0000 C   0  0  0  0  0  0  0  0  0  0  0  0
    3.7320   -1.5591    0.0000 C   0  0  0  0  0  0  0  0  0  0  0  0
    5.9674    0.9024    0.0000 C   0  0  0  0  0  0  0  0  0  0  0  0
    2.8660   -0.0591    0.0000 C   0  0  0  0  0  0  0  0  0  0  0  0
    6.6353    0.1581    0.0000 C   0  0  0  0  0  0  0  0  0  0  0  0
    6.2781    1.8529    0.0000 C   0  0  0  0  0  0  0  0  0  0  0  0
    7.6138    0.3643    0.0000 C   0  0  0  0  0  0  0  0  0  0  0  0
    7.2566    2.0591    0.0000 C   0  0  0  0  0  0  0  0  0  0  0  0
    2.0000   -1.5591    0.0000 C   0  0  0  0  0  0  0  0  0  0  0  0
    7.9244    1.3148    0.0000 C   0  0  0  0  0  0  0  0  0  0  0  0
    4.2408    0.1850    0.0000 H   0  0  0  0  0  0  0  0  0  0  0  0
    4.5749    1.1576    0.0000 H   0  0  0  0  0  0  0  0  0  0  0  0
    6.4427   -0.4313    0.0000 H   0  0  0  0  0  0  0  0  0  0  0  0
    5.8640    2.3144    0.0000 H   0  0  0  0  0  0  0  0  0  0  0  0
    8.0279   -0.0972    0.0000 H   0  0  0  0  0  0  0  0  0  0  0  0
    7.4492    2.6484    0.0000 H   0  0  0  0  0  0  0  0  0  0  0  0
    1.4631   -1.8691    0.0000 H   0  0  0  0  0  0  0  0  0  0  0  0
    2.3291    1.2509    0.0000 H   0  0  0  0  0  0  0  0  0  0  0  0
    3.4030    1.2509    0.0000 H   0  0  0  0  0  0  0  0  0  0  0  0
  1 18  1  0  0  0  0
  2  8  1  0  0  0  0
  2 11  1  0  0  0  0
  2 20  1  0  0  0  0
  3  4  2  0  0  0  0
  3  8  1  0  0  0  0
  4 10  1  0  0  0  0
  5 10  2  0  0  0  0
  5 17  1  0  0  0  0
  6 12  1  0  0  0  0
  6 17  2  0  0  0  0
  7 12  1  0  0  0  0
  7 26  1  0  0  0  0
  7 27  1  0  0  0  0
  8  9  1  0  0  0  0
  8 19  1  0  0  0  0
  9 10  1  0  0  0  0
  9 12  2  0  0  0  0
 11 13  2  0  0  0  0
 11 14  1  0  0  0  0
 13 15  1  0  0  0  0
 13 21  1  0  0  0  0
 14 16  2  0  0  0  0
 14 22  1  0  0  0  0
 15 18  2  0  0  0  0
 15 23  1  0  0  0  0
 16 18  1  0  0  0  0
 16 24  1  0  0  0  0
 17 25  1  0  0  0  0
M  END
> <PUBCHEM_COMPOUND_CID>
45481524

> <PUBCHEM_COMPOUND_CANONICALIZED>
1

> <PUBCHEM_CACTVS_COMPLEXITY>
317

> <PUBCHEM_CACTVS_HBOND_ACCEPTOR>
7

> <PUBCHEM_CACTVS_HBOND_DONOR>
2

> <PUBCHEM_CACTVS_ROTATABLE_BOND>
2

> <PUBCHEM_CACTVS_SUBSKEYS>
AAADccBzgQAAAAAAAAAAAAAAAAAAAQAAAAA8QAAAAAAAAEABwAAAHQAYAAAADAjBGgw18JbIEACiAiZjZACCgCkxAqAJ2KAoZJiIKCLA2dGEJAhokALIyCcQAAAAAAAAAAAAAAAAAAAAAAAAAAAAAAAAAA==

> <PUBCHEM_IUPAC_OPENEYE_NAME>
N3-(4-fluorophenyl)-3H-pyrazolo[3,4-d]pyrimidine-3,4-diamine

> <PUBCHEM_IUPAC_CAS_NAME>
N3-(4-fluorophenyl)-3H-pyrazolo[3,4-d]pyrimidine-3,4-diamine

> <PUBCHEM_IUPAC_NAME>
3-N-(4-fluorophenyl)-3H-pyrazolo[3,4-d]pyrimidine-3,4-diamine

> <PUBCHEM_IUPAC_SYSTEMATIC_NAME>
N3-(4-fluorophenyl)-3H-pyrazolo[3,4-d]pyrimidine-3,4-diamine

> <PUBCHEM_IUPAC_TRADITIONAL_NAME>
(4-amino-3H-pyrazolo[3,4-d]pyrimidin-3-yl)-(4-fluorophenyl)amine

> <PUBCHEM_IUPAC_INCHI>
InChI=1S/C11H9FN6/c12-6-1-3-7(4-2-6)16-11-8-9(13)14-5-15-10(8)17-18-11/h1-5,11,16H,(H2,13,14,15)

> <PUBCHEM_IUPAC_INCHIKEY>
SIIPGZWXUQVYMG-UHFFFAOYSA-N

> <PUBCHEM_XLOGP3_AA>
1.9

> <PUBCHEM_EXACT_MASS>
244.087

> <PUBCHEM_MOLECULAR_FORMULA>
C11H9FN6

> <PUBCHEM_MOLECULAR_WEIGHT>
244.233

> <PUBCHEM_OPENEYE_CAN_SMILES>
C1=CC(=CC=C1NC2C3=C(N=CN=C3N)N=N2)F

> <PUBCHEM_OPENEYE_ISO_SMILES>
C1=CC(=CC=C1NC2C3=C(N=CN=C3N)N=N2)F

> <PUBCHEM_CACTVS_TPSA>
88.6

> <PUBCHEM_MONOISOTOPIC_WEIGHT>
244.087

> <PUBCHEM_TOTAL_CHARGE>
0

> <PUBCHEM_HEAVY_ATOM_COUNT>
18

> <PUBCHEM_ATOM_DEF_STEREO_COUNT>
0

> <PUBCHEM_ATOM_UDEF_STEREO_COUNT>
1

> <PUBCHEM_BOND_DEF_STEREO_COUNT>
0

> <PUBCHEM_BOND_UDEF_STEREO_COUNT>
0

> <PUBCHEM_ISOTOPIC_ATOM_COUNT>
0

> <PUBCHEM_COMPONENT_COUNT>
1

> <PUBCHEM_CACTVS_TAUTO_COUNT>
4

> <PUBCHEM_COORDINATE_TYPE>
1
5
255

> <PUBCHEM_BONDANNOTATIONS>
11  13  8
11  14  8
13  15  8
14  16  8
15  18  8
16  18  8
8  2  3
5  10  8
5  17  8
6  12  8
6  17  8
9  10  8
9  12  8

$$$$
11566580
  -OEChem-11021605012D

 36 38  0     0  0  0  0  0  0999 V2000
   10.6418   -3.0445    0.0000 Cl  0  0  0  0  0  0  0  0  0  0  0  0
   12.3853   -2.0646    0.0000 F   0  0  0  0  0  0  0  0  0  0  0  0
    4.5981    2.5099    0.0000 O   0  0  0  0  0  0  0  0  0  0  0  0
    8.9446   -0.0247    0.0000 N   0  0  0  0  0  0  0  0  0  0  0  0
    9.8622    1.4891    0.0000 N   0  0  0  0  0  0  0  0  0  0  0  0
    8.9561    3.0445    0.0000 N   0  0  0  0  0  0  0  0  0  0  0  0
    6.3301    2.5099    0.0000 N   0  0  0  0  0  0  0  0  0  0  0  0
    5.4641    1.0099    0.0000 N   0  0  0  0  0  0  0  0  0  0  0  0
    8.0622    1.5099    0.0000 C   0  0  0  0  0  0  0  0  0  0  0  0
    8.9561    0.9752    0.0000 C   0  0  0  0  0  0  0  0  0  0  0  0
    8.0622    2.5099    0.0000 C   0  0  0  0  0  0  0  0  0  0  0  0
    7.1962    1.0099    0.0000 C   0  0  0  0  0  0  0  0  0  0  0  0
    9.8047   -0.5347    0.0000 C   0  0  0  0  0  0  0  0  0  0  0  0
    6.3301    1.5099    0.0000 C   0  0  0  0  0  0  0  0  0  0  0  0
    7.1962    3.0099    0.0000 C   0  0  0  0  0  0  0  0  0  0  0  0
    9.7932   -1.5346    0.0000 C   0  0  0  0  0  0  0  0  0  0  0  0
   10.6765   -0.0447    0.0000 C   0  0  0  0  0  0  0  0  0  0  0  0
    9.8622    2.5307    0.0000 C   0  0  0  0  0  0  0  0  0  0  0  0
   10.6534   -2.0446    0.0000 C   0  0  0  0  0  0  0  0  0  0  0  0
   11.5367   -0.5547    0.0000 C   0  0  0  0  0  0  0  0  0  0  0  0
   11.5251   -1.5547    0.0000 C   0  0  0  0  0  0  0  0  0  0  0  0
    4.5981    1.5099    0.0000 C   0  0  0  0  0  0  0  0  0  0  0  0
    3.7320    1.0099    0.0000 C   0  0  0  0  0  0  0  0  0  0  0  0
    2.8660    0.5099    0.0000 C   0  0  0  0  0  0  0  0  0  0  0  0
    2.0000    0.0099    0.0000 C   0  0  0  0  0  0  0  0  0  0  0  0
    7.1962    0.3899    0.0000 H   0  0  0  0  0  0  0  0  0  0  0  0
    8.4041   -0.3285    0.0000 H   0  0  0  0  0  0  0  0  0  0  0  0
    7.1962    3.6299    0.0000 H   0  0  0  0  0  0  0  0  0  0  0  0
    9.2527   -1.8384    0.0000 H   0  0  0  0  0  0  0  0  0  0  0  0
   10.6837    0.5752    0.0000 H   0  0  0  0  0  0  0  0  0  0  0  0
   10.3979    2.8428    0.0000 H   0  0  0  0  0  0  0  0  0  0  0  0
   12.0772   -0.2510    0.0000 H   0  0  0  0  0  0  0  0  0  0  0  0
    5.4641    0.3899    0.0000 H   0  0  0  0  0  0  0  0  0  0  0  0
    1.6900    0.5468    0.0000 H   0  0  0  0  0  0  0  0  0  0  0  0
    1.4631   -0.3001    0.0000 H   0  0  0  0  0  0  0  0  0  0  0  0
    2.3100   -0.5271    0.0000 H   0  0  0  0  0  0  0  0  0  0  0  0
  1 19  1  0  0  0  0
  2 21  1  0  0  0  0
  3 22  2  0  0  0  0
  4 10  1  0  0  0  0
  4 13  1  0  0  0  0
  4 27  1  0  0  0  0
  5 10  2  0  0  0  0
  5 18  1  0  0  0  0
  6 11  1  0  0  0  0
  6 18  2  0  0  0  0
  7 14  2  0  0  0  0
  7 15  1  0  0  0  0
  8 14  1  0  0  0  0
  8 22  1  0  0  0  0
  8 33  1  0  0  0  0
  9 10  1  0  0  0  0
  9 11  1  0  0  0  0
  9 12  2  0  0  0  0
 11 15  2  0  0  0  0
 12 14  1  0  0  0  0
 12 26  1  0  0  0  0
 13 16  2  0  0  0  0
 13 17  1  0  0  0  0
 15 28  1  0  0  0  0
 16 19  1  0  0  0  0
 16 29  1  0  0  0  0
 17 20  2  0  0  0  0
 17 30  1  0  0  0  0
 18 31  1  0  0  0  0
 19 21  2  0  0  0  0
 20 21  1  0  0  0  0
 20 32  1  0  0  0  0
 22 23  1  0  0  0  0
 23 24  3  0  0  0  0
 24 25  1  0  0  0  0
 25 34  1  0  0  0  0
 25 35  1  0  0  0  0
 25 36  1  0  0  0  0
M  END
> <PUBCHEM_COMPOUND_CID>
11566580

> <PUBCHEM_COMPOUND_CANONICALIZED>
1

> <PUBCHEM_CACTVS_COMPLEXITY>
550

> <PUBCHEM_CACTVS_HBOND_ACCEPTOR>
6

> <PUBCHEM_CACTVS_HBOND_DONOR>
2

> <PUBCHEM_CACTVS_ROTATABLE_BOND>
3

> <PUBCHEM_CACTVS_SUBSKEYS>
AAADccB7oQAEAAAAAAAAAAAAAAAAAAAAAAA8WIAAAAAAAACx/AAAHwIQAAAADArBniw/8PbIEADoEzd3dACCgC0xF6AJ2CA4dpiIaOLB29GUJAholQLIyCcQAAAKAAAAAAIAAAAAAAAABAAAAAAAAAAAAA==

> <PUBCHEM_IUPAC_OPENEYE_NAME>
N-[4-(3-chloro-4-fluoro-anilino)pyrido[3,4-d]pyrimidin-6-yl]but-2-ynamide

> <PUBCHEM_IUPAC_CAS_NAME>
N-[4-(3-chloro-4-fluoroanilino)-6-pyrido[3,4-d]pyrimidinyl]-2-butynamide

> <PUBCHEM_IUPAC_NAME>
N-[4-(3-chloro-4-fluoroanilino)pyrido[3,4-d]pyrimidin-6-yl]but-2-ynamide

> <PUBCHEM_IUPAC_SYSTEMATIC_NAME>
N-[4-[(3-chloranyl-4-fluoranyl-phenyl)amino]pyrido[3,4-d]pyrimidin-6-yl]but-2-ynamide

> <PUBCHEM_IUPAC_TRADITIONAL_NAME>
N-[4-(3-chloro-4-fluoro-anilino)pyrido[3,4-d]pyrimidin-6-yl]but-2-ynamide

> <PUBCHEM_IUPAC_INCHI>
InChI=1S/C17H11ClFN5O/c1-2-3-16(25)24-15-7-11-14(8-20-15)21-9-22-17(11)23-10-4-5-13(19)12(18)6-10/h4-9H,1H3,(H,20,24,25)(H,21,22,23)

> <PUBCHEM_IUPAC_INCHIKEY>
DLPSDPPZXRJQOY-UHFFFAOYSA-N

> <PUBCHEM_XLOGP3_AA>
3.6

> <PUBCHEM_EXACT_MASS>
355.064

> <PUBCHEM_MOLECULAR_FORMULA>
C17H11ClFN5O

> <PUBCHEM_MOLECULAR_WEIGHT>
355.757

> <PUBCHEM_OPENEYE_CAN_SMILES>
CC#CC(=O)NC1=NC=C2C(=C1)C(=NC=N2)NC3=CC(=C(C=C3)F)Cl

> <PUBCHEM_OPENEYE_ISO_SMILES>
CC#CC(=O)NC1=NC=C2C(=C1)C(=NC=N2)NC3=CC(=C(C=C3)F)Cl

> <PUBCHEM_CACTVS_TPSA>
79.8

> <PUBCHEM_MONOISOTOPIC_WEIGHT>
355.064

> <PUBCHEM_TOTAL_CHARGE>
0

> <PUBCHEM_HEAVY_ATOM_COUNT>
25

> <PUBCHEM_ATOM_DEF_STEREO_COUNT>
0

> <PUBCHEM_ATOM_UDEF_STEREO_COUNT>
0

> <PUBCHEM_BOND_DEF_STEREO_COUNT>
0

> <PUBCHEM_BOND_UDEF_STEREO_COUNT>
0

> <PUBCHEM_ISOTOPIC_ATOM_COUNT>
0

> <PUBCHEM_COMPONENT_COUNT>
1

> <PUBCHEM_CACTVS_TAUTO_COUNT>
9

> <PUBCHEM_COORDINATE_TYPE>
1
5
255

> <PUBCHEM_BONDANNOTATIONS>
11  15  8
12  14  8
13  16  8
13  17  8
16  19  8
17  20  8
19  21  8
20  21  8
5  10  8
5  18  8
6  11  8
6  18  8
7  14  8
7  15  8
9  10  8
9  11  8
9  12  8

$$$$
6419766
  -OEChem-11021605012D

 38 41  0     0  0  0  0  0  0999 V2000
    5.4641   -1.1156    0.0000 N   0  0  0  0  0  0  0  0  0  0  0  0
    4.5981    0.3844    0.0000 N   0  0  0  0  0  0  0  0  0  0  0  0
    5.4641    1.8844    0.0000 N   0  0  0  0  0  0  0  0  0  0  0  0
    3.5154   -2.8180    0.0000 N   0  0  0  0  0  0  0  0  0  0  0  0
    4.4936   -2.6101    0.0000 N   0  0  0  0  0  0  0  0  0  0  0  0
    6.3301    0.3844    0.0000 C   0  0  0  0  0  0  0  0  0  0  0  0
    5.4641   -0.1156    0.0000 C   0  0  0  0  0  0  0  0  0  0  0  0
    6.3301    1.3844    0.0000 C   0  0  0  0  0  0  0  0  0  0  0  0
    4.5981    1.3844    0.0000 C   0  0  0  0  0  0  0  0  0  0  0  0
    4.5981   -1.6156    0.0000 C   0  0  0  0  0  0  0  0  0  0  0  0
    7.2241   -0.1502    0.0000 C   0  0  0  0  0  0  0  0  0  0  0  0
    3.7320    1.8844    0.0000 C   0  0  0  0  0  0  0  0  0  0  0  0
    7.2241    1.9191    0.0000 C   0  0  0  0  0  0  0  0  0  0  0  0
    3.6845   -1.2088    0.0000 C   0  0  0  0  0  0  0  0  0  0  0  0
    3.0154   -1.9520    0.0000 C   0  0  0  0  0  0  0  0  0  0  0  0
    8.1301    0.3636    0.0000 C   0  0  0  0  0  0  0  0  0  0  0  0
    8.1301    1.4052    0.0000 C   0  0  0  0  0  0  0  0  0  0  0  0
    3.7320    2.8844    0.0000 C   0  0  0  0  0  0  0  0  0  0  0  0
    2.8660    1.3844    0.0000 C   0  0  0  0  0  0  0  0  0  0  0  0
    2.0209   -1.8475    0.0000 C   0  0  0  0  0  0  0  0  0  0  0  0
    2.8660    3.3844    0.0000 C   0  0  0  0  0  0  0  0  0  0  0  0
    2.0000    1.8844    0.0000 C   0  0  0  0  0  0  0  0  0  0  0  0
    2.0000    2.8844    0.0000 C   0  0  0  0  0  0  0  0  0  0  0  0
    6.0010   -1.4256    0.0000 H   0  0  0  0  0  0  0  0  0  0  0  0
    7.2169   -0.7702    0.0000 H   0  0  0  0  0  0  0  0  0  0  0  0
    7.2169    2.5390    0.0000 H   0  0  0  0  0  0  0  0  0  0  0  0
    3.5556   -0.6024    0.0000 H   0  0  0  0  0  0  0  0  0  0  0  0
    8.6659    0.0515    0.0000 H   0  0  0  0  0  0  0  0  0  0  0  0
    8.6659    1.7173    0.0000 H   0  0  0  0  0  0  0  0  0  0  0  0
    3.2632   -3.3844    0.0000 H   0  0  0  0  0  0  0  0  0  0  0  0
    4.2690    3.1944    0.0000 H   0  0  0  0  0  0  0  0  0  0  0  0
    2.8660    0.7644    0.0000 H   0  0  0  0  0  0  0  0  0  0  0  0
    2.0857   -1.2309    0.0000 H   0  0  0  0  0  0  0  0  0  0  0  0
    1.4043   -1.7827    0.0000 H   0  0  0  0  0  0  0  0  0  0  0  0
    1.9561   -2.4641    0.0000 H   0  0  0  0  0  0  0  0  0  0  0  0
    2.8660    4.0044    0.0000 H   0  0  0  0  0  0  0  0  0  0  0  0
    1.4631    1.5744    0.0000 H   0  0  0  0  0  0  0  0  0  0  0  0
    1.4631    3.1944    0.0000 H   0  0  0  0  0  0  0  0  0  0  0  0
  1  7  1  0  0  0  0
  1 10  1  0  0  0  0
  1 24  1  0  0  0  0
  2  7  2  0  0  0  0
  2  9  1  0  0  0  0
  3  8  1  0  0  0  0
  3  9  2  0  0  0  0
  4  5  1  0  0  0  0
  4 15  1  0  0  0  0
  4 30  1  0  0  0  0
  5 10  2  0  0  0  0
  6  7  1  0  0  0  0
  6  8  1  0  0  0  0
  6 11  2  0  0  0  0
  8 13  2  0  0  0  0
  9 12  1  0  0  0  0
 10 14  1  0  0  0  0
 11 16  1  0  0  0  0
 11 25  1  0  0  0  0
 12 18  2  0  0  0  0
 12 19  1  0  0  0  0
 13 17  1  0  0  0  0
 13 26  1  0  0  0  0
 14 15  2  0  0  0  0
 14 27  1  0  0  0  0
 15 20  1  0  0  0  0
 16 17  2  0  0  0  0
 16 28  1  0  0  0  0
 17 29  1  0  0  0  0
 18 21  1  0  0  0  0
 18 31  1  0  0  0  0
 19 22  2  0  0  0  0
 19 32  1  0  0  0  0
 20 33  1  0  0  0  0
 20 34  1  0  0  0  0
 20 35  1  0  0  0  0
 21 23  2  0  0  0  0
 21 36  1  0  0  0  0
 22 23  1  0  0  0  0
 22 37  1  0  0  0  0
 23 38  1  0  0  0  0
M  END
> <PUBCHEM_COMPOUND_CID>
6419766

> <PUBCHEM_COMPOUND_CANONICALIZED>
1

> <PUBCHEM_CACTVS_COMPLEXITY>
384

> <PUBCHEM_CACTVS_HBOND_ACCEPTOR>
4

> <PUBCHEM_CACTVS_HBOND_DONOR>
2

> <PUBCHEM_CACTVS_ROTATABLE_BOND>
3

> <PUBCHEM_CACTVS_SUBSKEYS>
AAADccB7gAAAAAAAAAAAAAAAAAAAAWAAAAA8YIAAAAAAAACx/AAAHAAYAAAADAiBHwAz8PbrEACiAyZiZACShCshAqAduSAwZJiIKOLA2dGEpAh4mALIyCcQgAAOAAAAAAACAAAAAAAAAAQAAAAAAAAAAA==

> <PUBCHEM_IUPAC_OPENEYE_NAME>
N-(5-methyl-1H-pyrazol-3-yl)-2-phenyl-quinazolin-4-amine

> <PUBCHEM_IUPAC_CAS_NAME>
N-(5-methyl-1H-pyrazol-3-yl)-2-phenyl-4-quinazolinamine

> <PUBCHEM_IUPAC_NAME>
N-(5-methyl-1H-pyrazol-3-yl)-2-phenylquinazolin-4-amine

> <PUBCHEM_IUPAC_SYSTEMATIC_NAME>
N-(5-methyl-1H-pyrazol-3-yl)-2-phenyl-quinazolin-4-amine

> <PUBCHEM_IUPAC_TRADITIONAL_NAME>
(5-methyl-1H-pyrazol-3-yl)-(2-phenylquinazolin-4-yl)amine

> <PUBCHEM_IUPAC_INCHI>
InChI=1S/C18H15N5/c1-12-11-16(23-22-12)20-18-14-9-5-6-10-15(14)19-17(21-18)13-7-3-2-4-8-13/h2-11H,1H3,(H2,19,20,21,22,23)

> <PUBCHEM_IUPAC_INCHIKEY>
JYCUVOXSZBECAY-UHFFFAOYSA-N

> <PUBCHEM_XLOGP3>
4.4

> <PUBCHEM_EXACT_MASS>
301.133

> <PUBCHEM_MOLECULAR_FORMULA>
C18H15N5

> <PUBCHEM_MOLECULAR_WEIGHT>
301.353

> <PUBCHEM_OPENEYE_CAN_SMILES>
CC1=CC(=NN1)NC2=NC(=NC3=CC=CC=C32)C4=CC=CC=C4

> <PUBCHEM_OPENEYE_ISO_SMILES>
CC1=CC(=NN1)NC2=NC(=NC3=CC=CC=C32)C4=CC=CC=C4

> <PUBCHEM_CACTVS_TPSA>
66.5

> <PUBCHEM_MONOISOTOPIC_WEIGHT>
301.133

> <PUBCHEM_TOTAL_CHARGE>
0

> <PUBCHEM_HEAVY_ATOM_COUNT>
23

> <PUBCHEM_ATOM_DEF_STEREO_COUNT>
0

> <PUBCHEM_ATOM_UDEF_STEREO_COUNT>
0

> <PUBCHEM_BOND_DEF_STEREO_COUNT>
0

> <PUBCHEM_BOND_UDEF_STEREO_COUNT>
0

> <PUBCHEM_ISOTOPIC_ATOM_COUNT>
0

> <PUBCHEM_COMPONENT_COUNT>
1

> <PUBCHEM_CACTVS_TAUTO_COUNT>
11

> <PUBCHEM_COORDINATE_TYPE>
1
5
255

> <PUBCHEM_BONDANNOTATIONS>
10  14  8
11  16  8
12  18  8
12  19  8
13  17  8
14  15  8
16  17  8
18  21  8
19  22  8
2  7  8
2  9  8
21  23  8
22  23  8
3  8  8
3  9  8
4  15  8
4  5  8
5  10  8
6  11  8
6  7  8
6  8  8
8  13  8

$$$$
3547
  -OEChem-11021605012D

 37 39  0     1  0  0  0  0  0999 V2000
    3.1235    0.3573    0.0000 S   0  0  0  0  0  0  0  0  0  0  0  0
    2.1235    0.3573    0.0000 O   0  0  0  0  0  0  0  0  0  0  0  0
    4.1235    0.3573    0.0000 O   0  0  0  0  0  0  0  0  0  0  0  0
    3.1235   -0.6427    0.0000 N   0  0  3  0  0  0  0  0  0  0  0  0
    2.6235   -2.8333    0.0000 N   0  0  0  0  0  0  0  0  0  0  0  0
    5.7895    2.8781    0.0000 N   0  0  0  0  0  0  0  0  0  0  0  0
    4.0245   -1.0766    0.0000 C   0  0  0  0  0  0  0  0  0  0  0  0
    2.2225   -1.0766    0.0000 C   0  0  0  0  0  0  0  0  0  0  0  0
    4.2470   -2.0515    0.0000 C   0  0  0  0  0  0  0  0  0  0  0  0
    2.0000   -2.0515    0.0000 C   0  0  0  0  0  0  0  0  0  0  0  0
    3.6235   -2.8333    0.0000 C   0  0  0  0  0  0  0  0  0  0  0  0
    3.1235    1.3573    0.0000 C   0  0  0  0  0  0  0  0  0  0  0  0
    3.9895    1.8573    0.0000 C   0  0  0  0  0  0  0  0  0  0  0  0
    2.2575    1.8573    0.0000 C   0  0  0  0  0  0  0  0  0  0  0  0
    3.9895    2.8573    0.0000 C   0  0  0  0  0  0  0  0  0  0  0  0
    2.2575    2.8573    0.0000 C   0  0  0  0  0  0  0  0  0  0  0  0
    4.8835    1.3226    0.0000 C   0  0  0  0  0  0  0  0  0  0  0  0
    3.1235    3.3573    0.0000 C   0  0  0  0  0  0  0  0  0  0  0  0
    4.8835    3.3920    0.0000 C   0  0  0  0  0  0  0  0  0  0  0  0
    5.7895    1.8365    0.0000 C   0  0  0  0  0  0  0  0  0  0  0  0
    4.6445   -1.0766    0.0000 H   0  0  0  0  0  0  0  0  0  0  0  0
    4.1624   -0.4721    0.0000 H   0  0  0  0  0  0  0  0  0  0  0  0
    2.0846   -0.4721    0.0000 H   0  0  0  0  0  0  0  0  0  0  0  0
    1.6025   -1.0766    0.0000 H   0  0  0  0  0  0  0  0  0  0  0  0
    4.6335   -2.5363    0.0000 H   0  0  0  0  0  0  0  0  0  0  0  0
    4.8056   -1.7825    0.0000 H   0  0  0  0  0  0  0  0  0  0  0  0
    1.4414   -1.7825    0.0000 H   0  0  0  0  0  0  0  0  0  0  0  0
    1.6134   -2.5363    0.0000 H   0  0  0  0  0  0  0  0  0  0  0  0
    3.4855   -3.4378    0.0000 H   0  0  0  0  0  0  0  0  0  0  0  0
    4.1821   -3.1024    0.0000 H   0  0  0  0  0  0  0  0  0  0  0  0
    2.3545   -3.3920    0.0000 H   0  0  0  0  0  0  0  0  0  0  0  0
    1.7205    1.5473    0.0000 H   0  0  0  0  0  0  0  0  0  0  0  0
    1.7205    3.1673    0.0000 H   0  0  0  0  0  0  0  0  0  0  0  0
    4.8763    0.7027    0.0000 H   0  0  0  0  0  0  0  0  0  0  0  0
    3.1235    3.9773    0.0000 H   0  0  0  0  0  0  0  0  0  0  0  0
    4.8763    4.0119    0.0000 H   0  0  0  0  0  0  0  0  0  0  0  0
    6.3253    1.5244    0.0000 H   0  0  0  0  0  0  0  0  0  0  0  0
  1  2  2  0  0  0  0
  1  3  2  0  0  0  0
  1  4  1  0  0  0  0
  1 12  1  0  0  0  0
  4  7  1  0  0  0  0
  4  8  1  0  0  0  0
  5 10  1  0  0  0  0
  5 11  1  0  0  0  0
  5 31  1  0  0  0  0
  6 19  2  0  0  0  0
  6 20  1  0  0  0  0
  7  9  1  0  0  0  0
  7 21  1  0  0  0  0
  7 22  1  0  0  0  0
  8 10  1  0  0  0  0
  8 23  1  0  0  0  0
  8 24  1  0  0  0  0
  9 11  1  0  0  0  0
  9 25  1  0  0  0  0
  9 26  1  0  0  0  0
 10 27  1  0  0  0  0
 10 28  1  0  0  0  0
 11 29  1  0  0  0  0
 11 30  1  0  0  0  0
 12 13  1  0  0  0  0
 12 14  2  0  0  0  0
 13 15  2  0  0  0  0
 13 17  1  0  0  0  0
 14 16  1  0  0  0  0
 14 32  1  0  0  0  0
 15 18  1  0  0  0  0
 15 19  1  0  0  0  0
 16 18  2  0  0  0  0
 16 33  1  0  0  0  0
 17 20  2  0  0  0  0
 17 34  1  0  0  0  0
 18 35  1  0  0  0  0
 19 36  1  0  0  0  0
 20 37  1  0  0  0  0
M  END
> <PUBCHEM_COMPOUND_CID>
3547

> <PUBCHEM_COMPOUND_CANONICALIZED>
1

> <PUBCHEM_CACTVS_COMPLEXITY>
421

> <PUBCHEM_CACTVS_HBOND_ACCEPTOR>
5

> <PUBCHEM_CACTVS_HBOND_DONOR>
1

> <PUBCHEM_CACTVS_ROTATABLE_BOND>
2

> <PUBCHEM_CACTVS_SUBSKEYS>
AAADceBzMABAAAAAAAAAAAAAAAAAAAAAAAA8QAAABYAAAACx8AAAHAQQQAAADADBWgQ8gdLIEAKgAjBnRHDCgDAxAiAI2Lg4ZJgIYOLA0ZGUIAhgkADIyAcQgIAOgAAAgAAUAAAAAAEAACgAAAAAAAAAAA==

> <PUBCHEM_IUPAC_OPENEYE_NAME>
5-(1,4-diazepan-1-ylsulfonyl)isoquinoline

> <PUBCHEM_IUPAC_CAS_NAME>
5-(1,4-diazepan-1-ylsulfonyl)isoquinoline

> <PUBCHEM_IUPAC_NAME>
5-(1,4-diazepan-1-ylsulfonyl)isoquinoline

> <PUBCHEM_IUPAC_SYSTEMATIC_NAME>
5-(1,4-diazepan-1-ylsulfonyl)isoquinoline

> <PUBCHEM_IUPAC_TRADITIONAL_NAME>
5-(1,4-diazepan-1-ylsulfonyl)isoquinoline

> <PUBCHEM_IUPAC_INCHI>
InChI=1S/C14H17N3O2S/c18-20(19,17-9-2-6-15-8-10-17)14-4-1-3-12-11-16-7-5-13(12)14/h1,3-5,7,11,15H,2,6,8-10H2

> <PUBCHEM_IUPAC_INCHIKEY>
NGOGFTYYXHNFQH-UHFFFAOYSA-N

> <PUBCHEM_XLOGP3_AA>
1

> <PUBCHEM_EXACT_MASS>
291.104

> <PUBCHEM_MOLECULAR_FORMULA>
C14H17N3O2S

> <PUBCHEM_MOLECULAR_WEIGHT>
291.369

> <PUBCHEM_OPENEYE_CAN_SMILES>
C1CNCCN(C1)S(=O)(=O)C2=CC=CC3=C2C=CN=C3

> <PUBCHEM_OPENEYE_ISO_SMILES>
C1CNCCN(C1)S(=O)(=O)C2=CC=CC3=C2C=CN=C3

> <PUBCHEM_CACTVS_TPSA>
70.7

> <PUBCHEM_MONOISOTOPIC_WEIGHT>
291.104

> <PUBCHEM_TOTAL_CHARGE>
0

> <PUBCHEM_HEAVY_ATOM_COUNT>
20

> <PUBCHEM_ATOM_DEF_STEREO_COUNT>
0

> <PUBCHEM_ATOM_UDEF_STEREO_COUNT>
0

> <PUBCHEM_BOND_DEF_STEREO_COUNT>
0

> <PUBCHEM_BOND_UDEF_STEREO_COUNT>
0

> <PUBCHEM_ISOTOPIC_ATOM_COUNT>
0

> <PUBCHEM_COMPONENT_COUNT>
1

> <PUBCHEM_CACTVS_TAUTO_COUNT>
1

> <PUBCHEM_COORDINATE_TYPE>
1
5
255

> <PUBCHEM_BONDANNOTATIONS>
12  13  8
12  14  8
13  15  8
13  17  8
14  16  8
15  18  8
15  19  8
16  18  8
17  20  8
6  19  8
6  20  8

$$$$
6419755
  -OEChem-11021605012D

 52 56  0     0  0  0  0  0  0999 V2000
    7.3430    0.9051    0.0000 O   0  0  0  0  0  0  0  0  0  0  0  0
    5.2788    3.7566    0.0000 O   0  0  0  0  0  0  0  0  0  0  0  0
    5.2727   -1.3731    0.0000 N   0  0  0  0  0  0  0  0  0  0  0  0
    7.8511   -3.6865    0.0000 N   0  0  0  0  0  0  0  0  0  0  0  0
    6.5367    2.4943    0.0000 N   0  0  0  0  0  0  0  0  0  0  0  0
    3.9970    1.9987    0.0000 N   0  0  0  0  0  0  0  0  0  0  0  0
    9.4599   -3.5146    0.0000 N   0  0  0  0  0  0  0  0  0  0  0  0
    5.5834   -2.3236    0.0000 C   0  0  0  0  0  0  0  0  0  0  0  0
    4.3265   -1.0683    0.0000 C   0  0  0  0  0  0  0  0  0  0  0  0
    5.2727    0.2364    0.0000 C   0  0  0  0  0  0  0  0  0  0  0  0
    4.3265   -0.0683    0.0000 C   0  0  0  0  0  0  0  0  0  0  0  0
    5.8563   -0.5683    0.0000 C   0  0  0  0  0  0  0  0  0  0  0  0
    6.5619   -2.5298    0.0000 C   0  0  0  0  0  0  0  0  0  0  0  0
    5.5834    1.1869    0.0000 C   0  0  0  0  0  0  0  0  0  0  0  0
    6.8726   -3.4803    0.0000 C   0  0  0  0  0  0  0  0  0  0  0  0
    3.4605   -1.5683    0.0000 C   0  0  0  0  0  0  0  0  0  0  0  0
    3.4605    0.4317    0.0000 C   0  0  0  0  0  0  0  0  0  0  0  0
    4.9970    1.9970    0.0000 C   0  0  0  0  0  0  0  0  0  0  0  0
    6.5350    1.4943    0.0000 C   0  0  0  0  0  0  0  0  0  0  0  0
    2.5944   -1.0683    0.0000 C   0  0  0  0  0  0  0  0  0  0  0  0
    2.5944   -0.0683    0.0000 C   0  0  0  0  0  0  0  0  0  0  0  0
    5.5862    2.8050    0.0000 C   0  0  0  0  0  0  0  0  0  0  0  0
    8.2594   -4.5994    0.0000 C   0  0  0  0  0  0  0  0  0  0  0  0
    8.5930   -3.0161    0.0000 C   0  0  0  0  0  0  0  0  0  0  0  0
    3.4985    2.8656    0.0000 C   0  0  0  0  0  0  0  0  0  0  0  0
    9.2537   -4.4931    0.0000 C   0  0  0  0  0  0  0  0  0  0  0  0
    4.0000    3.7308    0.0000 C   0  0  0  0  0  0  0  0  0  0  0  0
    2.4985    2.8673    0.0000 C   0  0  0  0  0  0  0  0  0  0  0  0
    3.5015    4.5976    0.0000 C   0  0  0  0  0  0  0  0  0  0  0  0
    2.0000    3.7342    0.0000 C   0  0  0  0  0  0  0  0  0  0  0  0
    2.5015    4.5994    0.0000 C   0  0  0  0  0  0  0  0  0  0  0  0
    4.9696   -2.4109    0.0000 H   0  0  0  0  0  0  0  0  0  0  0  0
    5.5628   -2.9432    0.0000 H   0  0  0  0  0  0  0  0  0  0  0  0
    7.1757   -2.4424    0.0000 H   0  0  0  0  0  0  0  0  0  0  0  0
    6.5824   -1.9101    0.0000 H   0  0  0  0  0  0  0  0  0  0  0  0
    6.4763   -0.5683    0.0000 H   0  0  0  0  0  0  0  0  0  0  0  0
    6.2587   -3.5677    0.0000 H   0  0  0  0  0  0  0  0  0  0  0  0
    6.8520   -4.1000    0.0000 H   0  0  0  0  0  0  0  0  0  0  0  0
    3.4605   -2.1883    0.0000 H   0  0  0  0  0  0  0  0  0  0  0  0
    3.4605    1.0517    0.0000 H   0  0  0  0  0  0  0  0  0  0  0  0
    2.0575   -1.3783    0.0000 H   0  0  0  0  0  0  0  0  0  0  0  0
    2.0575    0.2417    0.0000 H   0  0  0  0  0  0  0  0  0  0  0  0
    7.0389    2.8579    0.0000 H   0  0  0  0  0  0  0  0  0  0  0  0
    3.6861    1.4623    0.0000 H   0  0  0  0  0  0  0  0  0  0  0  0
    7.9503   -5.1368    0.0000 H   0  0  0  0  0  0  0  0  0  0  0  0
    8.5272   -2.3996    0.0000 H   0  0  0  0  0  0  0  0  0  0  0  0
    9.6694   -4.9532    0.0000 H   0  0  0  0  0  0  0  0  0  0  0  0
    4.6200    3.7297    0.0000 H   0  0  0  0  0  0  0  0  0  0  0  0
    2.1876    2.3309    0.0000 H   0  0  0  0  0  0  0  0  0  0  0  0
    3.8124    5.1340    0.0000 H   0  0  0  0  0  0  0  0  0  0  0  0
    1.3800    3.7353    0.0000 H   0  0  0  0  0  0  0  0  0  0  0  0
    2.1924    5.1368    0.0000 H   0  0  0  0  0  0  0  0  0  0  0  0
  1 19  2  0  0  0  0
  2 22  2  0  0  0  0
  3  8  1  0  0  0  0
  3  9  1  0  0  0  0
  3 12  1  0  0  0  0
  4 15  1  0  0  0  0
  4 23  1  0  0  0  0
  4 24  1  0  0  0  0
  5 19  1  0  0  0  0
  5 22  1  0  0  0  0
  5 43  1  0  0  0  0
  6 18  1  0  0  0  0
  6 25  1  0  0  0  0
  6 44  1  0  0  0  0
  7 24  2  0  0  0  0
  7 26  1  0  0  0  0
  8 13  1  0  0  0  0
  8 32  1  0  0  0  0
  8 33  1  0  0  0  0
  9 11  1  0  0  0  0
  9 16  2  0  0  0  0
 10 11  1  0  0  0  0
 10 12  2  0  0  0  0
 10 14  1  0  0  0  0
 11 17  2  0  0  0  0
 12 36  1  0  0  0  0
 13 15  1  0  0  0  0
 13 34  1  0  0  0  0
 13 35  1  0  0  0  0
 14 18  2  0  0  0  0
 14 19  1  0  0  0  0
 15 37  1  0  0  0  0
 15 38  1  0  0  0  0
 16 20  1  0  0  0  0
 16 39  1  0  0  0  0
 17 21  1  0  0  0  0
 17 40  1  0  0  0  0
 18 22  1  0  0  0  0
 20 21  2  0  0  0  0
 20 41  1  0  0  0  0
 21 42  1  0  0  0  0
 23 26  2  0  0  0  0
 23 45  1  0  0  0  0
 24 46  1  0  0  0  0
 25 27  2  0  0  0  0
 25 28  1  0  0  0  0
 26 47  1  0  0  0  0
 27 29  1  0  0  0  0
 27 48  1  0  0  0  0
 28 30  2  0  0  0  0
 28 49  1  0  0  0  0
 29 31  2  0  0  0  0
 29 50  1  0  0  0  0
 30 31  1  0  0  0  0
 30 51  1  0  0  0  0
 31 52  1  0  0  0  0
M  END
> <PUBCHEM_COMPOUND_CID>
6419755

> <PUBCHEM_COMPOUND_CANONICALIZED>
1

> <PUBCHEM_CACTVS_COMPLEXITY>
717

> <PUBCHEM_CACTVS_HBOND_ACCEPTOR>
4

> <PUBCHEM_CACTVS_HBOND_DONOR>
2

> <PUBCHEM_CACTVS_ROTATABLE_BOND>
7

> <PUBCHEM_CACTVS_SUBSKEYS>
AAADceB7sAAAAAAAAAAAAAAAAAAAAWLEAAAwYAAAAAAAAFgB/AAAHgAQAAAADAjBngQ90PfMEACoAzV3dACCgC0xEqAJ2CG4dNiIaPLA3bGUIAholCLIyWccicCegAAAAAACAAAAAAAAAAQAAAAAAAAAAA==

> <PUBCHEM_IUPAC_OPENEYE_NAME>
3-anilino-4-[1-(3-imidazol-1-ylpropyl)indol-3-yl]pyrrole-2,5-dione

> <PUBCHEM_IUPAC_CAS_NAME>
3-anilino-4-[1-[3-(1-imidazolyl)propyl]-3-indolyl]pyrrole-2,5-dione

> <PUBCHEM_IUPAC_NAME>
3-anilino-4-[1-(3-imidazol-1-ylpropyl)indol-3-yl]pyrrole-2,5-dione

> <PUBCHEM_IUPAC_SYSTEMATIC_NAME>
3-[1-(3-imidazol-1-ylpropyl)indol-3-yl]-4-phenylazanyl-pyrrole-2,5-dione

> <PUBCHEM_IUPAC_TRADITIONAL_NAME>
3-anilino-4-[1-(3-imidazol-1-ylpropyl)indol-3-yl]-3-pyrroline-2,5-quinone

> <PUBCHEM_IUPAC_INCHI>
InChI=1S/C24H21N5O2/c30-23-21(22(24(31)27-23)26-17-7-2-1-3-8-17)19-15-29(20-10-5-4-9-18(19)20)13-6-12-28-14-11-25-16-28/h1-5,7-11,14-16H,6,12-13H2,(H2,26,27,30,31)

> <PUBCHEM_IUPAC_INCHIKEY>
KIWODJBCHRADND-UHFFFAOYSA-N

> <PUBCHEM_XLOGP3_AA>
2.8

> <PUBCHEM_EXACT_MASS>
411.17

> <PUBCHEM_MOLECULAR_FORMULA>
C24H21N5O2

> <PUBCHEM_MOLECULAR_WEIGHT>
411.465

> <PUBCHEM_OPENEYE_CAN_SMILES>
C1=CC=C(C=C1)NC2=C(C(=O)NC2=O)C3=CN(C4=CC=CC=C43)CCCN5C=CN=C5

> <PUBCHEM_OPENEYE_ISO_SMILES>
C1=CC=C(C=C1)NC2=C(C(=O)NC2=O)C3=CN(C4=CC=CC=C43)CCCN5C=CN=C5

> <PUBCHEM_CACTVS_TPSA>
81

> <PUBCHEM_MONOISOTOPIC_WEIGHT>
411.17

> <PUBCHEM_TOTAL_CHARGE>
0

> <PUBCHEM_HEAVY_ATOM_COUNT>
31

> <PUBCHEM_ATOM_DEF_STEREO_COUNT>
0

> <PUBCHEM_ATOM_UDEF_STEREO_COUNT>
0

> <PUBCHEM_BOND_DEF_STEREO_COUNT>
0

> <PUBCHEM_BOND_UDEF_STEREO_COUNT>
0

> <PUBCHEM_ISOTOPIC_ATOM_COUNT>
0

> <PUBCHEM_COMPONENT_COUNT>
1

> <PUBCHEM_CACTVS_TAUTO_COUNT>
8

> <PUBCHEM_COORDINATE_TYPE>
1
5
255

> <PUBCHEM_BONDANNOTATIONS>
10  11  8
10  12  8
11  17  8
16  20  8
17  21  8
20  21  8
23  26  8
25  27  8
25  28  8
27  29  8
28  30  8
29  31  8
3  12  8
3  9  8
30  31  8
4  23  8
4  24  8
7  24  8
7  26  8
9  11  8
9  16  8

$$$$
71450808
  -OEChem-11021605012D

 70 74  0     1  0  0  0  0  0999 V2000
    2.0000   -0.0338    0.0000 Cl  0  0  0  0  0  0  0  0  0  0  0  0
    6.3301   -0.5338    0.0000 S   0  0  0  0  0  0  0  0  0  0  0  0
   12.9293    2.9278    0.0000 O   0  0  0  0  0  0  0  0  0  0  0  0
   11.4580   -1.5338    0.0000 O   0  0  0  0  0  0  0  0  0  0  0  0
    5.8301   -1.3998    0.0000 O   0  0  0  0  0  0  0  0  0  0  0  0
    6.8301    0.3322    0.0000 O   0  0  0  0  0  0  0  0  0  0  0  0
   14.2144    1.7666    0.0000 N   0  0  0  0  0  0  0  0  0  0  0  0
   16.1700    1.3474    0.0000 N   0  0  0  0  0  0  0  0  0  0  0  0
    9.8744   -2.3385    0.0000 N   0  0  0  0  0  0  0  0  0  0  0  0
    5.4641   -0.0338    0.0000 N   0  0  3  0  0  0  0  0  0  0  0  0
   14.5218    0.8151    0.0000 C   0  0  0  0  0  0  0  0  0  0  0  0
   14.8849    2.5086    0.0000 C   0  0  0  0  0  0  0  0  0  0  0  0
   15.8627    2.2990    0.0000 C   0  0  0  0  0  0  0  0  0  0  0  0
   15.4996    0.6055    0.0000 C   0  0  0  0  0  0  0  0  0  0  0  0
   12.5662    1.2343    0.0000 C   0  0  0  0  0  0  0  0  0  0  0  0
   13.2367    1.9763    0.0000 C   0  0  0  0  0  0  0  0  0  0  0  0
   11.9056   -0.2427    0.0000 C   0  0  0  0  0  0  0  0  0  0  0  0
   12.7725    0.2558    0.0000 C   0  0  0  0  0  0  0  0  0  0  0  0
   11.5719    1.3405    0.0000 C   0  0  0  0  0  0  0  0  0  0  0  0
   11.1636    0.4277    0.0000 C   0  0  0  0  0  0  0  0  0  0  0  0
   17.1478    1.1378    0.0000 C   0  0  0  0  0  0  0  0  0  0  0  0
   10.1851    0.2215    0.0000 C   0  0  0  0  0  0  0  0  0  0  0  0
    9.8744   -0.7291    0.0000 C   0  0  0  0  0  0  0  0  0  0  0  0
   13.6853   -0.1526    0.0000 C   0  0  0  0  0  0  0  0  0  0  0  0
   11.0734    2.2074    0.0000 C   0  0  0  0  0  0  0  0  0  0  0  0
    8.9282   -1.0338    0.0000 C   0  0  0  0  0  0  0  0  0  0  0  0
    8.9282   -2.0338    0.0000 C   0  0  0  0  0  0  0  0  0  0  0  0
   10.4580   -1.5338    0.0000 C   0  0  0  0  0  0  0  0  0  0  0  0
    8.0622   -0.5338    0.0000 C   0  0  0  0  0  0  0  0  0  0  0  0
    7.1962   -1.0338    0.0000 C   0  0  0  0  0  0  0  0  0  0  0  0
    8.0622   -2.5338    0.0000 C   0  0  0  0  0  0  0  0  0  0  0  0
    7.1962   -2.0338    0.0000 C   0  0  0  0  0  0  0  0  0  0  0  0
    4.5981   -0.5338    0.0000 C   0  0  0  0  0  0  0  0  0  0  0  0
    5.4641    0.9662    0.0000 C   0  0  0  0  0  0  0  0  0  0  0  0
    3.7320   -0.0338    0.0000 C   0  0  0  0  0  0  0  0  0  0  0  0
    4.5981   -1.5338    0.0000 C   0  0  0  0  0  0  0  0  0  0  0  0
    2.8660   -0.5338    0.0000 C   0  0  0  0  0  0  0  0  0  0  0  0
    3.7320   -2.0338    0.0000 C   0  0  0  0  0  0  0  0  0  0  0  0
    2.8660   -1.5338    0.0000 C   0  0  0  0  0  0  0  0  0  0  0  0
   13.9077    0.7298    0.0000 H   0  0  0  0  0  0  0  0  0  0  0  0
   14.4991    0.1955    0.0000 H   0  0  0  0  0  0  0  0  0  0  0  0
   15.1181    3.0831    0.0000 H   0  0  0  0  0  0  0  0  0  0  0  0
   14.3596    2.8381    0.0000 H   0  0  0  0  0  0  0  0  0  0  0  0
   16.4768    2.3843    0.0000 H   0  0  0  0  0  0  0  0  0  0  0  0
   15.8854    2.9186    0.0000 H   0  0  0  0  0  0  0  0  0  0  0  0
   15.2664    0.0310    0.0000 H   0  0  0  0  0  0  0  0  0  0  0  0
   16.0248    0.2760    0.0000 H   0  0  0  0  0  0  0  0  0  0  0  0
   11.4441   -0.6568    0.0000 H   0  0  0  0  0  0  0  0  0  0  0  0
   12.2691   -0.7450    0.0000 H   0  0  0  0  0  0  0  0  0  0  0  0
    9.7710    0.6829    0.0000 H   0  0  0  0  0  0  0  0  0  0  0  0
   17.0179    0.5316    0.0000 H   0  0  0  0  0  0  0  0  0  0  0  0
   17.7540    1.0079    0.0000 H   0  0  0  0  0  0  0  0  0  0  0  0
   17.2778    1.7441    0.0000 H   0  0  0  0  0  0  0  0  0  0  0  0
   13.4321   -0.7185    0.0000 H   0  0  0  0  0  0  0  0  0  0  0  0
   14.2513   -0.4057    0.0000 H   0  0  0  0  0  0  0  0  0  0  0  0
   13.9385    0.4134    0.0000 H   0  0  0  0  0  0  0  0  0  0  0  0
   11.6109    2.5165    0.0000 H   0  0  0  0  0  0  0  0  0  0  0  0
   10.7643    2.7449    0.0000 H   0  0  0  0  0  0  0  0  0  0  0  0
   10.5359    1.8983    0.0000 H   0  0  0  0  0  0  0  0  0  0  0  0
    8.0622    0.0862    0.0000 H   0  0  0  0  0  0  0  0  0  0  0  0
   10.0670   -2.9278    0.0000 H   0  0  0  0  0  0  0  0  0  0  0  0
    8.0622   -3.1538    0.0000 H   0  0  0  0  0  0  0  0  0  0  0  0
    6.6592   -2.3438    0.0000 H   0  0  0  0  0  0  0  0  0  0  0  0
    6.0841    0.9662    0.0000 H   0  0  0  0  0  0  0  0  0  0  0  0
    5.4641    1.5862    0.0000 H   0  0  0  0  0  0  0  0  0  0  0  0
    4.8441    0.9662    0.0000 H   0  0  0  0  0  0  0  0  0  0  0  0
    3.7320    0.5862    0.0000 H   0  0  0  0  0  0  0  0  0  0  0  0
    5.1350   -1.8438    0.0000 H   0  0  0  0  0  0  0  0  0  0  0  0
    3.7320   -2.6538    0.0000 H   0  0  0  0  0  0  0  0  0  0  0  0
    2.3291   -1.8438    0.0000 H   0  0  0  0  0  0  0  0  0  0  0  0
  1 37  1  0  0  0  0
  2  5  2  0  0  0  0
  2  6  2  0  0  0  0
  2 10  1  0  0  0  0
  2 30  1  0  0  0  0
  3 16  2  0  0  0  0
  4 28  2  0  0  0  0
  7 11  1  0  0  0  0
  7 12  1  0  0  0  0
  7 16  1  0  0  0  0
  8 13  1  0  0  0  0
  8 14  1  0  0  0  0
  8 21  1  0  0  0  0
  9 27  1  0  0  0  0
  9 28  1  0  0  0  0
  9 61  1  0  0  0  0
 10 33  1  0  0  0  0
 10 34  1  0  0  0  0
 11 14  1  0  0  0  0
 11 40  1  0  0  0  0
 11 41  1  0  0  0  0
 12 13  1  0  0  0  0
 12 42  1  0  0  0  0
 12 43  1  0  0  0  0
 13 44  1  0  0  0  0
 13 45  1  0  0  0  0
 14 46  1  0  0  0  0
 14 47  1  0  0  0  0
 15 16  1  0  0  0  0
 15 18  2  0  0  0  0
 15 19  1  0  0  0  0
 17 18  1  0  0  0  0
 17 20  1  0  0  0  0
 17 48  1  0  0  0  0
 17 49  1  0  0  0  0
 18 24  1  0  0  0  0
 19 20  2  0  0  0  0
 19 25  1  0  0  0  0
 20 22  1  0  0  0  0
 21 51  1  0  0  0  0
 21 52  1  0  0  0  0
 21 53  1  0  0  0  0
 22 23  2  0  0  0  0
 22 50  1  0  0  0  0
 23 26  1  0  0  0  0
 23 28  1  0  0  0  0
 24 54  1  0  0  0  0
 24 55  1  0  0  0  0
 24 56  1  0  0  0  0
 25 57  1  0  0  0  0
 25 58  1  0  0  0  0
 25 59  1  0  0  0  0
 26 27  2  0  0  0  0
 26 29  1  0  0  0  0
 27 31  1  0  0  0  0
 29 30  2  0  0  0  0
 29 60  1  0  0  0  0
 30 32  1  0  0  0  0
 31 32  2  0  0  0  0
 31 62  1  0  0  0  0
 32 63  1  0  0  0  0
 33 35  2  0  0  0  0
 33 36  1  0  0  0  0
 34 64  1  0  0  0  0
 34 65  1  0  0  0  0
 34 66  1  0  0  0  0
 35 37  1  0  0  0  0
 35 67  1  0  0  0  0
 36 38  2  0  0  0  0
 36 68  1  0  0  0  0
 37 39  2  0  0  0  0
 38 39  1  0  0  0  0
 38 69  1  0  0  0  0
 39 70  1  0  0  0  0
M  END
> <PUBCHEM_COMPOUND_CID>
71450808

> <PUBCHEM_COMPOUND_CANONICALIZED>
1

> <PUBCHEM_CACTVS_COMPLEXITY>
1210

> <PUBCHEM_CACTVS_HBOND_ACCEPTOR>
6

> <PUBCHEM_CACTVS_HBOND_DONOR>
1

> <PUBCHEM_CACTVS_ROTATABLE_BOND>
5

> <PUBCHEM_CACTVS_SUBSKEYS>
AAADceB7uABEAAAAAAAAAAAAAAAAAWIAAAA8YIAAAAAAAFgBQAAAHgYQQAAADArB2CQywYPAAAKIAiVSUHDCABAhBwAIiBkIZsgIYDLBl5GUIAhglgDIyYcciICOAAQAgAICAAAACAEABAQAAAAAAAAAAA==

> <PUBCHEM_IUPAC_OPENEYE_NAME>
(3Z)-N-(3-chlorophenyl)-3-[[2,4-dimethyl-3-(4-methylpiperazine-1-carbonyl)cyclopenta-1,3-dien-1-yl]methylene]-N-methyl-2-oxo-indoline-5-sulfonamide

> <PUBCHEM_IUPAC_CAS_NAME>
(3Z)-N-(3-chlorophenyl)-3-[[2,4-dimethyl-3-[(4-methyl-1-piperazinyl)-oxomethyl]-1-cyclopenta-1,3-dienyl]methylidene]-N-methyl-2-oxo-1H-indole-5-sulfonamide

> <PUBCHEM_IUPAC_NAME>
(3Z)-N-(3-chlorophenyl)-3-[[2,4-dimethyl-3-(4-methylpiperazine-1-carbonyl)cyclopenta-1,3-dien-1-yl]methylidene]-N-methyl-2-oxo-1H-indole-5-sulfonamide

> <PUBCHEM_IUPAC_SYSTEMATIC_NAME>
(3Z)-N-(3-chlorophenyl)-3-[[2,4-dimethyl-3-(4-methylpiperazin-1-yl)carbonyl-cyclopenta-1,3-dien-1-yl]methylidene]-N-methyl-2-oxidanylidene-1H-indole-5-sulfonamide

> <PUBCHEM_IUPAC_TRADITIONAL_NAME>
(3Z)-N-(3-chlorophenyl)-3-[[2,4-dimethyl-3-(4-methylpiperazine-1-carbonyl)cyclopenta-1,3-dien-1-yl]methylene]-2-keto-N-methyl-indoline-5-sulfonamide

> <PUBCHEM_IUPAC_INCHI>
InChI=1S/C29H31ClN4O4S/c1-18-14-20(19(2)27(18)29(36)34-12-10-32(3)11-13-34)15-25-24-17-23(8-9-26(24)31-28(25)35)39(37,38)33(4)22-7-5-6-21(30)16-22/h5-9,15-17H,10-14H2,1-4H3,(H,31,35)/b25-15-

> <PUBCHEM_IUPAC_INCHIKEY>
YIECEZWWJSWRJN-MYYYXRDXSA-N

> <PUBCHEM_XLOGP3_AA>
2.6

> <PUBCHEM_EXACT_MASS>
566.175

> <PUBCHEM_MOLECULAR_FORMULA>
C29H31ClN4O4S

> <PUBCHEM_MOLECULAR_WEIGHT>
567.101

> <PUBCHEM_OPENEYE_CAN_SMILES>
CC1=C(C(=C(C1)C=C2C3=C(C=CC(=C3)S(=O)(=O)N(C)C4=CC(=CC=C4)Cl)NC2=O)C)C(=O)N5CCN(CC5)C

> <PUBCHEM_OPENEYE_ISO_SMILES>
CC1=C(C(=C(C1)/C=C\2/C3=C(C=CC(=C3)S(=O)(=O)N(C)C4=CC(=CC=C4)Cl)NC2=O)C)C(=O)N5CCN(CC5)C

> <PUBCHEM_CACTVS_TPSA>
98.4

> <PUBCHEM_MONOISOTOPIC_WEIGHT>
566.175

> <PUBCHEM_TOTAL_CHARGE>
0

> <PUBCHEM_HEAVY_ATOM_COUNT>
39

> <PUBCHEM_ATOM_DEF_STEREO_COUNT>
0

> <PUBCHEM_ATOM_UDEF_STEREO_COUNT>
0

> <PUBCHEM_BOND_DEF_STEREO_COUNT>
1

> <PUBCHEM_BOND_UDEF_STEREO_COUNT>
0

> <PUBCHEM_ISOTOPIC_ATOM_COUNT>
0

> <PUBCHEM_COMPONENT_COUNT>
1

> <PUBCHEM_CACTVS_TAUTO_COUNT>
42

> <PUBCHEM_COORDINATE_TYPE>
1
5
255

> <PUBCHEM_BONDANNOTATIONS>
26  27  8
26  29  8
27  31  8
29  30  8
30  32  8
31  32  8
33  35  8
33  36  8
35  37  8
36  38  8
37  39  8
38  39  8

$$$$
3973
  -OEChem-11021605012D

 40 43  0     0  0  0  0  0  0999 V2000
    2.0000   -0.9828    0.0000 O   0  0  0  0  0  0  0  0  0  0  0  0
    5.4641    0.0172    0.0000 O   0  0  0  0  0  0  0  0  0  0  0  0
    5.4641    3.0172    0.0000 O   0  0  0  0  0  0  0  0  0  0  0  0
    3.7320    0.0172    0.0000 N   0  0  0  0  0  0  0  0  0  0  0  0
    2.8660    0.5172    0.0000 C   0  0  0  0  0  0  0  0  0  0  0  0
    3.7320   -0.9828    0.0000 C   0  0  0  0  0  0  0  0  0  0  0  0
    2.8660   -1.4828    0.0000 C   0  0  0  0  0  0  0  0  0  0  0  0
    2.0000    0.0172    0.0000 C   0  0  0  0  0  0  0  0  0  0  0  0
    4.5981    0.5172    0.0000 C   0  0  0  0  0  0  0  0  0  0  0  0
    6.3301    0.5172    0.0000 C   0  0  0  0  0  0  0  0  0  0  0  0
    6.3301    1.5172    0.0000 C   0  0  0  0  0  0  0  0  0  0  0  0
    4.5981    1.5172    0.0000 C   0  0  0  0  0  0  0  0  0  0  0  0
    7.2241   -0.0174    0.0000 C   0  0  0  0  0  0  0  0  0  0  0  0
    5.4641    2.0172    0.0000 C   0  0  0  0  0  0  0  0  0  0  0  0
    7.2241    2.0519    0.0000 C   0  0  0  0  0  0  0  0  0  0  0  0
    7.2125   -1.0174    0.0000 C   0  0  0  0  0  0  0  0  0  0  0  0
    8.1301    0.4964    0.0000 C   0  0  0  0  0  0  0  0  0  0  0  0
    8.1301    1.5380    0.0000 C   0  0  0  0  0  0  0  0  0  0  0  0
    8.0727   -1.5273    0.0000 C   0  0  0  0  0  0  0  0  0  0  0  0
    6.3408   -1.5073    0.0000 C   0  0  0  0  0  0  0  0  0  0  0  0
    8.0611   -2.5273    0.0000 C   0  0  0  0  0  0  0  0  0  0  0  0
    6.3292   -2.5072    0.0000 C   0  0  0  0  0  0  0  0  0  0  0  0
    7.1894   -3.0172    0.0000 C   0  0  0  0  0  0  0  0  0  0  0  0
    3.2646    0.9922    0.0000 H   0  0  0  0  0  0  0  0  0  0  0  0
    2.4675    0.9922    0.0000 H   0  0  0  0  0  0  0  0  0  0  0  0
    3.9441   -1.5654    0.0000 H   0  0  0  0  0  0  0  0  0  0  0  0
    4.3426   -0.8751    0.0000 H   0  0  0  0  0  0  0  0  0  0  0  0
    2.4675   -1.9577    0.0000 H   0  0  0  0  0  0  0  0  0  0  0  0
    3.2646   -1.9577    0.0000 H   0  0  0  0  0  0  0  0  0  0  0  0
    1.7880    0.5998    0.0000 H   0  0  0  0  0  0  0  0  0  0  0  0
    1.3894   -0.0904    0.0000 H   0  0  0  0  0  0  0  0  0  0  0  0
    4.0611    1.8272    0.0000 H   0  0  0  0  0  0  0  0  0  0  0  0
    7.2169    2.6718    0.0000 H   0  0  0  0  0  0  0  0  0  0  0  0
    8.6659    0.1843    0.0000 H   0  0  0  0  0  0  0  0  0  0  0  0
    8.6659    1.8501    0.0000 H   0  0  0  0  0  0  0  0  0  0  0  0
    8.6132   -1.2236    0.0000 H   0  0  0  0  0  0  0  0  0  0  0  0
    5.8074   -1.1911    0.0000 H   0  0  0  0  0  0  0  0  0  0  0  0
    8.5944   -2.8435    0.0000 H   0  0  0  0  0  0  0  0  0  0  0  0
    5.7887   -2.8110    0.0000 H   0  0  0  0  0  0  0  0  0  0  0  0
    7.1822   -3.6372    0.0000 H   0  0  0  0  0  0  0  0  0  0  0  0
  1  7  1  0  0  0  0
  1  8  1  0  0  0  0
  2  9  1  0  0  0  0
  2 10  1  0  0  0  0
  3 14  2  0  0  0  0
  4  5  1  0  0  0  0
  4  6  1  0  0  0  0
  4  9  1  0  0  0  0
  5  8  1  0  0  0  0
  5 24  1  0  0  0  0
  5 25  1  0  0  0  0
  6  7  1  0  0  0  0
  6 26  1  0  0  0  0
  6 27  1  0  0  0  0
  7 28  1  0  0  0  0
  7 29  1  0  0  0  0
  8 30  1  0  0  0  0
  8 31  1  0  0  0  0
  9 12  2  0  0  0  0
 10 11  2  0  0  0  0
 10 13  1  0  0  0  0
 11 14  1  0  0  0  0
 11 15  1  0  0  0  0
 12 14  1  0  0  0  0
 12 32  1  0  0  0  0
 13 16  1  0  0  0  0
 13 17  2  0  0  0  0
 15 18  2  0  0  0  0
 15 33  1  0  0  0  0
 16 19  2  0  0  0  0
 16 20  1  0  0  0  0
 17 18  1  0  0  0  0
 17 34  1  0  0  0  0
 18 35  1  0  0  0  0
 19 21  1  0  0  0  0
 19 36  1  0  0  0  0
 20 22  2  0  0  0  0
 20 37  1  0  0  0  0
 21 23  2  0  0  0  0
 21 38  1  0  0  0  0
 22 23  1  0  0  0  0
 22 39  1  0  0  0  0
 23 40  1  0  0  0  0
M  END
> <PUBCHEM_COMPOUND_CID>
3973

> <PUBCHEM_COMPOUND_CANONICALIZED>
1

> <PUBCHEM_CACTVS_COMPLEXITY>
463

> <PUBCHEM_CACTVS_HBOND_ACCEPTOR>
4

> <PUBCHEM_CACTVS_HBOND_DONOR>
0

> <PUBCHEM_CACTVS_ROTATABLE_BOND>
2

> <PUBCHEM_CACTVS_SUBSKEYS>
AAADceB6MAAAAAAAAAAAAAAAAAAAAAAAAAA8YIEAAAAAAACBQAAAHgAAAAAADAThmAYwBoMABACIAqBSQAACCAAkIgAIiAEMCMgOJjaENRqLMWAk4BGYqceIyOCOgAACAAAIAAAAAAQAABAAAAAAAAAAAA==

> <PUBCHEM_IUPAC_OPENEYE_NAME>
2-morpholino-8-phenyl-chromen-4-one

> <PUBCHEM_IUPAC_CAS_NAME>
2-(4-morpholinyl)-8-phenyl-1-benzopyran-4-one

> <PUBCHEM_IUPAC_NAME>
2-morpholin-4-yl-8-phenylchromen-4-one

> <PUBCHEM_IUPAC_SYSTEMATIC_NAME>
2-morpholin-4-yl-8-phenyl-chromen-4-one

> <PUBCHEM_IUPAC_TRADITIONAL_NAME>
2-morpholino-8-phenyl-chromone

> <PUBCHEM_IUPAC_INCHI>
InChI=1S/C19H17NO3/c21-17-13-18(20-9-11-22-12-10-20)23-19-15(7-4-8-16(17)19)14-5-2-1-3-6-14/h1-8,13H,9-12H2

> <PUBCHEM_IUPAC_INCHIKEY>
CZQHHVNHHHRRDU-UHFFFAOYSA-N

> <PUBCHEM_XLOGP3_AA>
3.1

> <PUBCHEM_EXACT_MASS>
307.121

> <PUBCHEM_MOLECULAR_FORMULA>
C19H17NO3

> <PUBCHEM_MOLECULAR_WEIGHT>
307.349

> <PUBCHEM_OPENEYE_CAN_SMILES>
C1COCCN1C2=CC(=O)C3=C(O2)C(=CC=C3)C4=CC=CC=C4

> <PUBCHEM_OPENEYE_ISO_SMILES>
C1COCCN1C2=CC(=O)C3=C(O2)C(=CC=C3)C4=CC=CC=C4

> <PUBCHEM_CACTVS_TPSA>
38.8

> <PUBCHEM_MONOISOTOPIC_WEIGHT>
307.121

> <PUBCHEM_TOTAL_CHARGE>
0

> <PUBCHEM_HEAVY_ATOM_COUNT>
23

> <PUBCHEM_ATOM_DEF_STEREO_COUNT>
0

> <PUBCHEM_ATOM_UDEF_STEREO_COUNT>
0

> <PUBCHEM_BOND_DEF_STEREO_COUNT>
0

> <PUBCHEM_BOND_UDEF_STEREO_COUNT>
0

> <PUBCHEM_ISOTOPIC_ATOM_COUNT>
0

> <PUBCHEM_COMPONENT_COUNT>
1

> <PUBCHEM_CACTVS_TAUTO_COUNT>
1

> <PUBCHEM_COORDINATE_TYPE>
1
5
255

> <PUBCHEM_BONDANNOTATIONS>
10  11  8
10  13  8
11  14  8
11  15  8
12  14  8
13  17  8
15  18  8
16  19  8
16  20  8
17  18  8
19  21  8
2  10  8
2  9  8
20  22  8
21  23  8
22  23  8
9  12  8

$$$$
6490494
  -OEChem-11021605012D

 27 30  0     0  0  0  0  0  0999 V2000
    2.5836    1.3376    0.0000 S   0  0  0  0  0  0  0  0  0  0  0  0
    6.0938   -0.7986    0.0000 O   0  0  0  0  0  0  0  0  0  0  0  0
    5.9989    0.9753    0.0000 N   0  0  0  0  0  0  0  0  0  0  0  0
    2.5836    2.9471    0.0000 N   0  0  0  0  0  0  0  0  0  0  0  0
    3.6615   -2.3343    0.0000 N   0  0  0  0  0  0  0  0  0  0  0  0
    5.2012   -2.8317    0.0000 N   0  0  0  0  0  0  0  0  0  0  0  0
    4.3958    1.1423    0.0000 C   0  0  0  0  0  0  0  0  0  0  0  0
    5.2619    1.6423    0.0000 C   0  0  0  0  0  0  0  0  0  0  0  0
    4.6051    0.1705    0.0000 C   0  0  0  0  0  0  0  0  0  0  0  0
    3.5298    1.6423    0.0000 C   0  0  0  0  0  0  0  0  0  0  0  0
    5.5938    0.0675    0.0000 C   0  0  0  0  0  0  0  0  0  0  0  0
    3.5298    2.6423    0.0000 C   0  0  0  0  0  0  0  0  0  0  0  0
    5.2619    2.6423    0.0000 C   0  0  0  0  0  0  0  0  0  0  0  0
    3.9372   -0.5738    0.0000 C   0  0  0  0  0  0  0  0  0  0  0  0
    4.3958    3.1423    0.0000 C   0  0  0  0  0  0  0  0  0  0  0  0
    4.2479   -1.5243    0.0000 C   0  0  0  0  0  0  0  0  0  0  0  0
    2.0000    2.1423    0.0000 C   0  0  0  0  0  0  0  0  0  0  0  0
    5.1995   -1.8317    0.0000 C   0  0  0  0  0  0  0  0  0  0  0  0
    4.2507   -3.1423    0.0000 C   0  0  0  0  0  0  0  0  0  0  0  0
    6.6056    1.1031    0.0000 H   0  0  0  0  0  0  0  0  0  0  0  0
    5.7988    2.9523    0.0000 H   0  0  0  0  0  0  0  0  0  0  0  0
    3.3305   -0.4459    0.0000 H   0  0  0  0  0  0  0  0  0  0  0  0
    4.3958    3.7623    0.0000 H   0  0  0  0  0  0  0  0  0  0  0  0
    1.3800    2.1423    0.0000 H   0  0  0  0  0  0  0  0  0  0  0  0
    3.0415   -2.3354    0.0000 H   0  0  0  0  0  0  0  0  0  0  0  0
    5.7004   -1.4664    0.0000 H   0  0  0  0  0  0  0  0  0  0  0  0
    4.0601   -3.7323    0.0000 H   0  0  0  0  0  0  0  0  0  0  0  0
  1 10  1  0  0  0  0
  1 17  1  0  0  0  0
  2 11  2  0  0  0  0
  3  8  1  0  0  0  0
  3 11  1  0  0  0  0
  3 20  1  0  0  0  0
  4 12  1  0  0  0  0
  4 17  2  0  0  0  0
  5 16  1  0  0  0  0
  5 19  1  0  0  0  0
  5 25  1  0  0  0  0
  6 18  1  0  0  0  0
  6 19  2  0  0  0  0
  7  8  2  0  0  0  0
  7  9  1  0  0  0  0
  7 10  1  0  0  0  0
  8 13  1  0  0  0  0
  9 11  1  0  0  0  0
  9 14  2  0  0  0  0
 10 12  2  0  0  0  0
 12 15  1  0  0  0  0
 13 15  2  0  0  0  0
 13 21  1  0  0  0  0
 14 16  1  0  0  0  0
 14 22  1  0  0  0  0
 15 23  1  0  0  0  0
 16 18  2  0  0  0  0
 17 24  1  0  0  0  0
 18 26  1  0  0  0  0
 19 27  1  0  0  0  0
M  END
> <PUBCHEM_COMPOUND_CID>
6490494

> <PUBCHEM_COMPOUND_CANONICALIZED>
1

> <PUBCHEM_CACTVS_COMPLEXITY>
427

> <PUBCHEM_CACTVS_HBOND_ACCEPTOR>
4

> <PUBCHEM_CACTVS_HBOND_DONOR>
2

> <PUBCHEM_CACTVS_ROTATABLE_BOND>
1

> <PUBCHEM_CACTVS_SUBSKEYS>
AAADccBzoABAAAAAAAAAAAAAAAAAAWLFgAAwAAAAAAAAAFgB/AAAHgQQAAAADAjB3gS90bbJkAisAzV3dACD8K3xGrgJ2bU4dNiIaLLgnZGUIAxolALIyacciYCeAACAQCAGAQAAAQCAQAwCAAAAAAAAAA==

> <PUBCHEM_IUPAC_OPENEYE_NAME>
(8Z)-8-(1H-imidazol-5-ylmethylene)-6H-pyrrolo[2,3-g][1,3]benzothiazol-7-one

> <PUBCHEM_IUPAC_CAS_NAME>
(8Z)-8-(1H-imidazol-5-ylmethylidene)-6H-pyrrolo[2,3-g][1,3]benzothiazol-7-one

> <PUBCHEM_IUPAC_NAME>
(8Z)-8-(1H-imidazol-5-ylmethylidene)-6H-pyrrolo[2,3-g][1,3]benzothiazol-7-one

> <PUBCHEM_IUPAC_SYSTEMATIC_NAME>
(8Z)-8-(1H-imidazol-5-ylmethylidene)-6H-pyrrolo[2,3-g][1,3]benzothiazol-7-one

> <PUBCHEM_IUPAC_TRADITIONAL_NAME>
(8Z)-8-(1H-imidazol-5-ylmethylene)-6H-pyrrolo[2,3-g][1,3]benzothiazol-7-one

> <PUBCHEM_IUPAC_INCHI>
InChI=1S/C13H8N4OS/c18-13-8(3-7-4-14-5-15-7)11-9(17-13)1-2-10-12(11)19-6-16-10/h1-6H,(H,14,15)(H,17,18)/b8-3-

> <PUBCHEM_IUPAC_INCHIKEY>
VFBGXTUGODTSPK-BAQGIRSFSA-N

> <PUBCHEM_XLOGP3_AA>
1.5

> <PUBCHEM_EXACT_MASS>
268.042

> <PUBCHEM_MOLECULAR_FORMULA>
C13H8N4OS

> <PUBCHEM_MOLECULAR_WEIGHT>
268.294

> <PUBCHEM_OPENEYE_CAN_SMILES>
C1=CC2=C(C3=C1NC(=O)C3=CC4=CN=CN4)SC=N2

> <PUBCHEM_OPENEYE_ISO_SMILES>
C1=CC2=C(C\3=C1NC(=O)/C3=C\C4=CN=CN4)SC=N2

> <PUBCHEM_CACTVS_TPSA>
98.9

> <PUBCHEM_MONOISOTOPIC_WEIGHT>
268.042

> <PUBCHEM_TOTAL_CHARGE>
0

> <PUBCHEM_HEAVY_ATOM_COUNT>
19

> <PUBCHEM_ATOM_DEF_STEREO_COUNT>
0

> <PUBCHEM_ATOM_UDEF_STEREO_COUNT>
0

> <PUBCHEM_BOND_DEF_STEREO_COUNT>
1

> <PUBCHEM_BOND_UDEF_STEREO_COUNT>
0

> <PUBCHEM_ISOTOPIC_ATOM_COUNT>
0

> <PUBCHEM_COMPONENT_COUNT>
1

> <PUBCHEM_CACTVS_TAUTO_COUNT>
9

> <PUBCHEM_COORDINATE_TYPE>
1
5
255

> <PUBCHEM_BONDANNOTATIONS>
1  10  8
1  17  8
10  12  8
12  15  8
13  15  8
16  18  8
4  12  8
4  17  8
5  16  8
5  19  8
6  18  8
6  19  8
7  10  8
7  8  8
8  13  8

$$$$
3501
  -OEChem-11021605012D

 47 52  0     0  0  0  0  0  0999 V2000
    9.3293   -1.7552    0.0000 O   0  0  0  0  0  0  0  0  0  0  0  0
    5.6034    1.1671    0.0000 N   0  0  0  0  0  0  0  0  0  0  0  0
    5.6034   -1.1671    0.0000 N   0  0  0  0  0  0  0  0  0  0  0  0
    9.6023    0.0000    0.0000 N   0  0  0  0  0  0  0  0  0  0  0  0
    2.0000    1.2927    0.0000 N   0  0  0  0  0  0  0  0  0  0  0  0
    6.3404    0.5000    0.0000 C   0  0  0  0  0  0  0  0  0  0  0  0
    7.2064    1.0000    0.0000 C   0  0  0  0  0  0  0  0  0  0  0  0
    6.3404   -0.5000    0.0000 C   0  0  0  0  0  0  0  0  0  0  0  0
    7.2064   -1.0000    0.0000 C   0  0  0  0  0  0  0  0  0  0  0  0
    8.0724    0.5000    0.0000 C   0  0  0  0  0  0  0  0  0  0  0  0
    8.0724   -0.5000    0.0000 C   0  0  0  0  0  0  0  0  0  0  0  0
    6.9972    1.9718    0.0000 C   0  0  0  0  0  0  0  0  0  0  0  0
    6.0085    2.0749    0.0000 C   0  0  0  0  0  0  0  0  0  0  0  0
    6.9972   -1.9718    0.0000 C   0  0  0  0  0  0  0  0  0  0  0  0
    9.0186    0.8047    0.0000 C   0  0  0  0  0  0  0  0  0  0  0  0
    6.0085   -2.0749    0.0000 C   0  0  0  0  0  0  0  0  0  0  0  0
    9.0186   -0.8047    0.0000 C   0  0  0  0  0  0  0  0  0  0  0  0
    4.6249    0.9609    0.0000 C   0  0  0  0  0  0  0  0  0  0  0  0
    7.6180    2.8006    0.0000 C   0  0  0  0  0  0  0  0  0  0  0  0
    4.6249   -0.9609    0.0000 C   0  0  0  0  0  0  0  0  0  0  0  0
    5.5720    3.0138    0.0000 C   0  0  0  0  0  0  0  0  0  0  0  0
    7.6180   -2.8006    0.0000 C   0  0  0  0  0  0  0  0  0  0  0  0
    5.5720   -3.0138    0.0000 C   0  0  0  0  0  0  0  0  0  0  0  0
    3.9570    1.7052    0.0000 C   0  0  0  0  0  0  0  0  0  0  0  0
    7.2033    3.7494    0.0000 C   0  0  0  0  0  0  0  0  0  0  0  0
    6.1734    3.8567    0.0000 C   0  0  0  0  0  0  0  0  0  0  0  0
    7.2033   -3.7494    0.0000 C   0  0  0  0  0  0  0  0  0  0  0  0
    6.1734   -3.8567    0.0000 C   0  0  0  0  0  0  0  0  0  0  0  0
    2.9785    1.4990    0.0000 C   0  0  0  0  0  0  0  0  0  0  0  0
    9.5560    1.1140    0.0000 H   0  0  0  0  0  0  0  0  0  0  0  0
    8.7676    1.3716    0.0000 H   0  0  0  0  0  0  0  0  0  0  0  0
    4.0985    0.6332    0.0000 H   0  0  0  0  0  0  0  0  0  0  0  0
    4.8561    0.3856    0.0000 H   0  0  0  0  0  0  0  0  0  0  0  0
   10.2223    0.0000    0.0000 H   0  0  0  0  0  0  0  0  0  0  0  0
    8.2338    2.7292    0.0000 H   0  0  0  0  0  0  0  0  0  0  0  0
    4.7527   -0.3542    0.0000 H   0  0  0  0  0  0  0  0  0  0  0  0
    4.0182   -0.8330    0.0000 H   0  0  0  0  0  0  0  0  0  0  0  0
    4.4970   -1.5675    0.0000 H   0  0  0  0  0  0  0  0  0  0  0  0
    4.9546    3.0710    0.0000 H   0  0  0  0  0  0  0  0  0  0  0  0
    8.2338   -2.7292    0.0000 H   0  0  0  0  0  0  0  0  0  0  0  0
    4.9546   -3.0710    0.0000 H   0  0  0  0  0  0  0  0  0  0  0  0
    4.4834    2.0328    0.0000 H   0  0  0  0  0  0  0  0  0  0  0  0
    3.7258    2.2804    0.0000 H   0  0  0  0  0  0  0  0  0  0  0  0
    7.5692    4.2499    0.0000 H   0  0  0  0  0  0  0  0  0  0  0  0
    5.9186    4.4219    0.0000 H   0  0  0  0  0  0  0  0  0  0  0  0
    7.5692   -4.2499    0.0000 H   0  0  0  0  0  0  0  0  0  0  0  0
    5.9186   -4.4219    0.0000 H   0  0  0  0  0  0  0  0  0  0  0  0
  1 17  2  0  0  0  0
  2  6  1  0  0  0  0
  2 13  1  0  0  0  0
  2 18  1  0  0  0  0
  3  8  1  0  0  0  0
  3 16  1  0  0  0  0
  3 20  1  0  0  0  0
  4 15  1  0  0  0  0
  4 17  1  0  0  0  0
  4 34  1  0  0  0  0
  5 29  3  0  0  0  0
  6  7  1  0  0  0  0
  6  8  2  0  0  0  0
  7 10  2  0  0  0  0
  7 12  1  0  0  0  0
  8  9  1  0  0  0  0
  9 11  2  0  0  0  0
  9 14  1  0  0  0  0
 10 11  1  0  0  0  0
 10 15  1  0  0  0  0
 11 17  1  0  0  0  0
 12 13  1  0  0  0  0
 12 19  2  0  0  0  0
 13 21  2  0  0  0  0
 14 16  1  0  0  0  0
 14 22  2  0  0  0  0
 15 30  1  0  0  0  0
 15 31  1  0  0  0  0
 16 23  2  0  0  0  0
 18 24  1  0  0  0  0
 18 32  1  0  0  0  0
 18 33  1  0  0  0  0
 19 25  1  0  0  0  0
 19 35  1  0  0  0  0
 20 36  1  0  0  0  0
 20 37  1  0  0  0  0
 20 38  1  0  0  0  0
 21 26  1  0  0  0  0
 21 39  1  0  0  0  0
 22 27  1  0  0  0  0
 22 40  1  0  0  0  0
 23 28  1  0  0  0  0
 23 41  1  0  0  0  0
 24 29  1  0  0  0  0
 24 42  1  0  0  0  0
 24 43  1  0  0  0  0
 25 26  2  0  0  0  0
 25 44  1  0  0  0  0
 26 45  1  0  0  0  0
 27 28  2  0  0  0  0
 27 46  1  0  0  0  0
 28 47  1  0  0  0  0
M  END
> <PUBCHEM_COMPOUND_CID>
3501

> <PUBCHEM_COMPOUND_CANONICALIZED>
1

> <PUBCHEM_CACTVS_COMPLEXITY>
730

> <PUBCHEM_CACTVS_HBOND_ACCEPTOR>
2

> <PUBCHEM_CACTVS_HBOND_DONOR>
1

> <PUBCHEM_CACTVS_ROTATABLE_BOND>
2

> <PUBCHEM_CACTVS_SUBSKEYS>
AAADceB7oAAAAAAAAAAAAAAAAAAAAWLFgAAwYMAAAAAAAFgB/gAAHgAQAAAADAjBngQywPPMEAC4ByVyVACCgCQlEiAI2KE4dNgI4PLAlZGUIQhghgDIyQccicCeyAACQAASACCQAASAACQAQAAAAAAAAA==

> <PUBCHEM_IUPAC_INCHI>
InChI=1S/C24H18N4O/c1-27-17-9-4-2-7-14(17)20-21-16(13-26-24(21)29)19-15-8-3-5-10-18(15)28(12-6-11-25)23(19)22(20)27/h2-5,7-10H,6,12-13H2,1H3,(H,26,29)

> <PUBCHEM_IUPAC_INCHIKEY>
VWVYILCFSYNJHF-UHFFFAOYSA-N

> <PUBCHEM_XLOGP3_AA>
3.2

> <PUBCHEM_EXACT_MASS>
378.148

> <PUBCHEM_MOLECULAR_FORMULA>
C24H18N4O

> <PUBCHEM_MOLECULAR_WEIGHT>
378.435

> <PUBCHEM_OPENEYE_CAN_SMILES>
CN1C2=CC=CC=C2C3=C4C(=C5C6=CC=CC=C6N(C5=C31)CCC#N)CNC4=O

> <PUBCHEM_OPENEYE_ISO_SMILES>
CN1C2=CC=CC=C2C3=C4C(=C5C6=CC=CC=C6N(C5=C31)CCC#N)CNC4=O

> <PUBCHEM_CACTVS_TPSA>
62.8

> <PUBCHEM_MONOISOTOPIC_WEIGHT>
378.148

> <PUBCHEM_TOTAL_CHARGE>
0

> <PUBCHEM_HEAVY_ATOM_COUNT>
29

> <PUBCHEM_ATOM_DEF_STEREO_COUNT>
0

> <PUBCHEM_ATOM_UDEF_STEREO_COUNT>
0

> <PUBCHEM_BOND_DEF_STEREO_COUNT>
0

> <PUBCHEM_BOND_UDEF_STEREO_COUNT>
0

> <PUBCHEM_ISOTOPIC_ATOM_COUNT>
0

> <PUBCHEM_COMPONENT_COUNT>
1

> <PUBCHEM_CACTVS_TAUTO_COUNT>
2

> <PUBCHEM_COORDINATE_TYPE>
1
5
255

> <PUBCHEM_BONDANNOTATIONS>
10  11  8
12  13  8
12  19  8
13  21  8
14  16  8
14  22  8
16  23  8
19  25  8
2  13  8
2  6  8
21  26  8
22  27  8
23  28  8
25  26  8
27  28  8
3  16  8
3  8  8
6  7  8
6  8  8
7  10  8
7  12  8
8  9  8
9  11  8
9  14  8

$$$$
11422035
  -OEChem-11021605012D

 43 46  0     0  0  0  0  0  0999 V2000
    4.6783   -3.8358    0.0000 S   0  0  0  0  0  0  0  0  0  0  0  0
    4.6783   -2.2264    0.0000 N   0  0  0  0  0  0  0  0  0  0  0  0
    6.2619    0.4330    0.0000 N   0  0  0  0  0  0  0  0  0  0  0  0
    6.2619   -1.2990    0.0000 N   0  0  0  0  0  0  0  0  0  0  0  0
    7.7619   -0.4330    0.0000 N   0  0  0  0  0  0  0  0  0  0  0  0
    8.2619    3.8971    0.0000 N   0  0  0  0  0  0  0  0  0  0  0  0
    7.2619   -4.7631    0.0000 N   0  0  0  0  0  0  0  0  0  0  0  0
    6.2619    2.1651    0.0000 C   0  0  0  0  0  0  0  0  0  0  0  0
    6.7619    1.2990    0.0000 C   0  0  0  0  0  0  0  0  0  0  0  0
    3.7320   -2.5311    0.0000 C   0  0  0  0  0  0  0  0  0  0  0  0
    3.7320   -3.5311    0.0000 C   0  0  0  0  0  0  0  0  0  0  0  0
    5.2619   -3.0311    0.0000 C   0  0  0  0  0  0  0  0  0  0  0  0
    6.7619    3.0311    0.0000 C   0  0  0  0  0  0  0  0  0  0  0  0
    6.2619   -3.0311    0.0000 C   0  0  0  0  0  0  0  0  0  0  0  0
    6.7619   -2.1651    0.0000 C   0  0  0  0  0  0  0  0  0  0  0  0
    2.8660   -2.0311    0.0000 C   0  0  0  0  0  0  0  0  0  0  0  0
    6.7619   -0.4330    0.0000 C   0  0  0  0  0  0  0  0  0  0  0  0
    2.8660   -4.0311    0.0000 C   0  0  0  0  0  0  0  0  0  0  0  0
    6.2619    3.8971    0.0000 C   0  0  0  0  0  0  0  0  0  0  0  0
    2.0000   -2.5311    0.0000 C   0  0  0  0  0  0  0  0  0  0  0  0
    2.0000   -3.5311    0.0000 C   0  0  0  0  0  0  0  0  0  0  0  0
    7.7619    3.0311    0.0000 C   0  0  0  0  0  0  0  0  0  0  0  0
    7.7619   -2.1651    0.0000 C   0  0  0  0  0  0  0  0  0  0  0  0
    8.2619   -1.2990    0.0000 C   0  0  0  0  0  0  0  0  0  0  0  0
    6.7619    4.7631    0.0000 C   0  0  0  0  0  0  0  0  0  0  0  0
    7.7619    4.7631    0.0000 C   0  0  0  0  0  0  0  0  0  0  0  0
    6.7619   -3.8971    0.0000 C   0  0  0  0  0  0  0  0  0  0  0  0
    5.7869    2.5636    0.0000 H   0  0  0  0  0  0  0  0  0  0  0  0
    5.7869    1.7665    0.0000 H   0  0  0  0  0  0  0  0  0  0  0  0
    7.2368    0.9005    0.0000 H   0  0  0  0  0  0  0  0  0  0  0  0
    7.2368    1.6976    0.0000 H   0  0  0  0  0  0  0  0  0  0  0  0
    4.8709   -1.6370    0.0000 H   0  0  0  0  0  0  0  0  0  0  0  0
    5.6419    0.4330    0.0000 H   0  0  0  0  0  0  0  0  0  0  0  0
    2.8660   -1.4111    0.0000 H   0  0  0  0  0  0  0  0  0  0  0  0
    2.8660   -4.6511    0.0000 H   0  0  0  0  0  0  0  0  0  0  0  0
    5.6419    3.8971    0.0000 H   0  0  0  0  0  0  0  0  0  0  0  0
    1.4631   -2.2211    0.0000 H   0  0  0  0  0  0  0  0  0  0  0  0
    1.4631   -3.8411    0.0000 H   0  0  0  0  0  0  0  0  0  0  0  0
    8.0719    2.4942    0.0000 H   0  0  0  0  0  0  0  0  0  0  0  0
    8.0719   -2.7020    0.0000 H   0  0  0  0  0  0  0  0  0  0  0  0
    8.8819   -1.2990    0.0000 H   0  0  0  0  0  0  0  0  0  0  0  0
    6.4519    5.3001    0.0000 H   0  0  0  0  0  0  0  0  0  0  0  0
    8.0719    5.3001    0.0000 H   0  0  0  0  0  0  0  0  0  0  0  0
  1 11  1  0  0  0  0
  1 12  1  0  0  0  0
  2 10  1  0  0  0  0
  2 12  1  0  0  0  0
  2 32  1  0  0  0  0
  3  9  1  0  0  0  0
  3 17  1  0  0  0  0
  3 33  1  0  0  0  0
  4 15  2  0  0  0  0
  4 17  1  0  0  0  0
  5 17  2  0  0  0  0
  5 24  1  0  0  0  0
  6 22  1  0  0  0  0
  6 26  2  0  0  0  0
  7 27  3  0  0  0  0
  8  9  1  0  0  0  0
  8 13  1  0  0  0  0
  8 28  1  0  0  0  0
  8 29  1  0  0  0  0
  9 30  1  0  0  0  0
  9 31  1  0  0  0  0
 10 11  1  0  0  0  0
 10 16  2  0  0  0  0
 11 18  2  0  0  0  0
 12 14  2  0  0  0  0
 13 19  1  0  0  0  0
 13 22  2  0  0  0  0
 14 15  1  0  0  0  0
 14 27  1  0  0  0  0
 15 23  1  0  0  0  0
 16 20  1  0  0  0  0
 16 34  1  0  0  0  0
 18 21  1  0  0  0  0
 18 35  1  0  0  0  0
 19 25  2  0  0  0  0
 19 36  1  0  0  0  0
 20 21  2  0  0  0  0
 20 37  1  0  0  0  0
 21 38  1  0  0  0  0
 22 39  1  0  0  0  0
 23 24  2  0  0  0  0
 23 40  1  0  0  0  0
 24 41  1  0  0  0  0
 25 26  1  0  0  0  0
 25 42  1  0  0  0  0
 26 43  1  0  0  0  0
M  END
> <PUBCHEM_COMPOUND_CID>
11422035

> <PUBCHEM_COMPOUND_CANONICALIZED>
1

> <PUBCHEM_CACTVS_COMPLEXITY>
584

> <PUBCHEM_CACTVS_HBOND_ACCEPTOR>
7

> <PUBCHEM_CACTVS_HBOND_DONOR>
2

> <PUBCHEM_CACTVS_ROTATABLE_BOND>
5

> <PUBCHEM_CACTVS_SUBSKEYS>
AAADceB7gABAAAAAAAAAAAAAAAAAAWAAAAA8WIAAAAAAAFgB8AAAHAQQAAAADAjBXgQ90ZbIEAiwBzRnZACigClxCrAJ2Lw4ZJiIqOLg2dGEJAhokALIyC8QAAAOAAAAAAAAAQAAAAAAAAACAAAAAAAAAA==

> <PUBCHEM_IUPAC_OPENEYE_NAME>
(2Z)-2-(3H-1,3-benzothiazol-2-ylidene)-2-[2-[2-(3-pyridyl)ethylamino]pyrimidin-4-yl]acetonitrile

> <PUBCHEM_IUPAC_CAS_NAME>
(2Z)-2-(3H-1,3-benzothiazol-2-ylidene)-2-[2-[2-(3-pyridinyl)ethylamino]-4-pyrimidinyl]acetonitrile

> <PUBCHEM_IUPAC_NAME>
(2Z)-2-(3H-1,3-benzothiazol-2-ylidene)-2-[2-(2-pyridin-3-ylethylamino)pyrimidin-4-yl]acetonitrile

> <PUBCHEM_IUPAC_SYSTEMATIC_NAME>
(2Z)-2-(3H-1,3-benzothiazol-2-ylidene)-2-[2-(2-pyridin-3-ylethylamino)pyrimidin-4-yl]ethanenitrile

> <PUBCHEM_IUPAC_TRADITIONAL_NAME>
(2Z)-2-(3H-1,3-benzothiazol-2-ylidene)-2-[2-[2-(3-pyridyl)ethylamino]pyrimidin-4-yl]acetonitrile

> <PUBCHEM_IUPAC_INCHI>
InChI=1S/C20H16N6S/c21-12-15(19-25-17-5-1-2-6-18(17)27-19)16-8-11-24-20(26-16)23-10-7-14-4-3-9-22-13-14/h1-6,8-9,11,13,25H,7,10H2,(H,23,24,26)/b19-15+

> <PUBCHEM_IUPAC_INCHIKEY>
AVLYNJZZQYEFEA-XDJHFCHBSA-N

> <PUBCHEM_XLOGP3_AA>
3.3

> <PUBCHEM_EXACT_MASS>
372.116

> <PUBCHEM_MOLECULAR_FORMULA>
C20H16N6S

> <PUBCHEM_MOLECULAR_WEIGHT>
372.45

> <PUBCHEM_OPENEYE_CAN_SMILES>
C1=CC=C2C(=C1)NC(=C(C#N)C3=NC(=NC=C3)NCCC4=CN=CC=C4)S2

> <PUBCHEM_OPENEYE_ISO_SMILES>
C1=CC=C2C(=C1)N/C(=C(/C#N)\C3=NC(=NC=C3)NCCC4=CN=CC=C4)/S2

> <PUBCHEM_CACTVS_TPSA>
112

> <PUBCHEM_MONOISOTOPIC_WEIGHT>
372.116

> <PUBCHEM_TOTAL_CHARGE>
0

> <PUBCHEM_HEAVY_ATOM_COUNT>
27

> <PUBCHEM_ATOM_DEF_STEREO_COUNT>
0

> <PUBCHEM_ATOM_UDEF_STEREO_COUNT>
0

> <PUBCHEM_BOND_DEF_STEREO_COUNT>
1

> <PUBCHEM_BOND_UDEF_STEREO_COUNT>
0

> <PUBCHEM_ISOTOPIC_ATOM_COUNT>
0

> <PUBCHEM_COMPONENT_COUNT>
1

> <PUBCHEM_CACTVS_TAUTO_COUNT>
9

> <PUBCHEM_COORDINATE_TYPE>
1
5
255

> <PUBCHEM_BONDANNOTATIONS>
10  11  8
10  16  8
11  18  8
13  19  8
13  22  8
15  23  8
16  20  8
18  21  8
19  25  8
20  21  8
23  24  8
25  26  8
4  15  8
4  17  8
5  17  8
5  24  8
6  22  8
6  26  8

$$$$
4707
  -OEChem-11021605012D

 32 34  0     0  0  0  0  0  0999 V2000
    8.0437   -3.0445    0.0000 Br  0  0  0  0  0  0  0  0  0  0  0  0
    6.3465   -0.0247    0.0000 N   0  0  0  0  0  0  0  0  0  0  0  0
    7.2641    1.4891    0.0000 N   0  0  0  0  0  0  0  0  0  0  0  0
    3.7320    2.5099    0.0000 N   0  0  0  0  0  0  0  0  0  0  0  0
    6.3580    3.0445    0.0000 N   0  0  0  0  0  0  0  0  0  0  0  0
    2.8660    1.0099    0.0000 N   0  0  0  0  0  0  0  0  0  0  0  0
    5.4641    1.5099    0.0000 C   0  0  0  0  0  0  0  0  0  0  0  0
    6.3580    0.9752    0.0000 C   0  0  0  0  0  0  0  0  0  0  0  0
    5.4641    2.5099    0.0000 C   0  0  0  0  0  0  0  0  0  0  0  0
    4.5981    1.0099    0.0000 C   0  0  0  0  0  0  0  0  0  0  0  0
    7.2067   -0.5347    0.0000 C   0  0  0  0  0  0  0  0  0  0  0  0
    3.7320    1.5099    0.0000 C   0  0  0  0  0  0  0  0  0  0  0  0
    4.5981    3.0099    0.0000 C   0  0  0  0  0  0  0  0  0  0  0  0
    7.1951   -1.5346    0.0000 C   0  0  0  0  0  0  0  0  0  0  0  0
    8.0784   -0.0447    0.0000 C   0  0  0  0  0  0  0  0  0  0  0  0
    7.2641    2.5307    0.0000 C   0  0  0  0  0  0  0  0  0  0  0  0
    8.0553   -2.0446    0.0000 C   0  0  0  0  0  0  0  0  0  0  0  0
    8.9386   -0.5547    0.0000 C   0  0  0  0  0  0  0  0  0  0  0  0
    8.9270   -1.5547    0.0000 C   0  0  0  0  0  0  0  0  0  0  0  0
    2.0000    1.5099    0.0000 C   0  0  0  0  0  0  0  0  0  0  0  0
    4.5981    0.3899    0.0000 H   0  0  0  0  0  0  0  0  0  0  0  0
    5.8060   -0.3285    0.0000 H   0  0  0  0  0  0  0  0  0  0  0  0
    4.5981    3.6299    0.0000 H   0  0  0  0  0  0  0  0  0  0  0  0
    6.6546   -1.8384    0.0000 H   0  0  0  0  0  0  0  0  0  0  0  0
    8.0856    0.5752    0.0000 H   0  0  0  0  0  0  0  0  0  0  0  0
    2.8660    0.3899    0.0000 H   0  0  0  0  0  0  0  0  0  0  0  0
    7.7998    2.8428    0.0000 H   0  0  0  0  0  0  0  0  0  0  0  0
    9.4791   -0.2510    0.0000 H   0  0  0  0  0  0  0  0  0  0  0  0
    9.4604   -1.8708    0.0000 H   0  0  0  0  0  0  0  0  0  0  0  0
    2.3100    2.0468    0.0000 H   0  0  0  0  0  0  0  0  0  0  0  0
    1.4631    1.8199    0.0000 H   0  0  0  0  0  0  0  0  0  0  0  0
    1.6900    0.9729    0.0000 H   0  0  0  0  0  0  0  0  0  0  0  0
  1 17  1  0  0  0  0
  2  8  1  0  0  0  0
  2 11  1  0  0  0  0
  2 22  1  0  0  0  0
  3  8  2  0  0  0  0
  3 16  1  0  0  0  0
  4 12  2  0  0  0  0
  4 13  1  0  0  0  0
  5  9  1  0  0  0  0
  5 16  2  0  0  0  0
  6 12  1  0  0  0  0
  6 20  1  0  0  0  0
  6 26  1  0  0  0  0
  7  8  1  0  0  0  0
  7  9  1  0  0  0  0
  7 10  2  0  0  0  0
  9 13  2  0  0  0  0
 10 12  1  0  0  0  0
 10 21  1  0  0  0  0
 11 14  2  0  0  0  0
 11 15  1  0  0  0  0
 13 23  1  0  0  0  0
 14 17  1  0  0  0  0
 14 24  1  0  0  0  0
 15 18  2  0  0  0  0
 15 25  1  0  0  0  0
 16 27  1  0  0  0  0
 17 19  2  0  0  0  0
 18 19  1  0  0  0  0
 18 28  1  0  0  0  0
 19 29  1  0  0  0  0
 20 30  1  0  0  0  0
 20 31  1  0  0  0  0
 20 32  1  0  0  0  0
M  END
> <PUBCHEM_COMPOUND_CID>
4707

> <PUBCHEM_COMPOUND_CANONICALIZED>
1

> <PUBCHEM_CACTVS_COMPLEXITY>
316

> <PUBCHEM_CACTVS_HBOND_ACCEPTOR>
5

> <PUBCHEM_CACTVS_HBOND_DONOR>
2

> <PUBCHEM_CACTVS_ROTATABLE_BOND>
3

> <PUBCHEM_CACTVS_SUBSKEYS>
AAADccBzgAAAEAAAAAAAAAAAAAAAAAAAAAA8WIAAAAAAAACx/AAAHABQAAABrAjBHgQ/8PbIEACgAzZnZACCgC0xEqQJ2KA4dLiIaOLA2dGUJAhokALIyjcQAAAKAAAAAAEAAAAAAAAAAgAAAAAAAAAAAA==

> <PUBCHEM_IUPAC_OPENEYE_NAME>
N4-(3-bromophenyl)-N6-methyl-pyrido[3,4-d]pyrimidine-4,6-diamine

> <PUBCHEM_IUPAC_CAS_NAME>
N4-(3-bromophenyl)-N6-methylpyrido[3,4-d]pyrimidine-4,6-diamine

> <PUBCHEM_IUPAC_NAME>
4-N-(3-bromophenyl)-6-N-methylpyrido[3,4-d]pyrimidine-4,6-diamine

> <PUBCHEM_IUPAC_SYSTEMATIC_NAME>
N4-(3-bromophenyl)-N6-methyl-pyrido[3,4-d]pyrimidine-4,6-diamine

> <PUBCHEM_IUPAC_TRADITIONAL_NAME>
[4-(3-bromoanilino)pyrido[3,4-d]pyrimidin-6-yl]-methyl-amine

> <PUBCHEM_IUPAC_INCHI>
InChI=1S/C14H12BrN5/c1-16-13-6-11-12(7-17-13)18-8-19-14(11)20-10-4-2-3-9(15)5-10/h2-8H,1H3,(H,16,17)(H,18,19,20)

> <PUBCHEM_IUPAC_INCHIKEY>
KFHMLBXBRCITHF-UHFFFAOYSA-N

> <PUBCHEM_XLOGP3_AA>
3.4

> <PUBCHEM_EXACT_MASS>
329.028

> <PUBCHEM_MOLECULAR_FORMULA>
C14H12BrN5

> <PUBCHEM_MOLECULAR_WEIGHT>
330.189

> <PUBCHEM_OPENEYE_CAN_SMILES>
CNC1=NC=C2C(=C1)C(=NC=N2)NC3=CC(=CC=C3)Br

> <PUBCHEM_OPENEYE_ISO_SMILES>
CNC1=NC=C2C(=C1)C(=NC=N2)NC3=CC(=CC=C3)Br

> <PUBCHEM_CACTVS_TPSA>
62.7

> <PUBCHEM_MONOISOTOPIC_WEIGHT>
329.028

> <PUBCHEM_TOTAL_CHARGE>
0

> <PUBCHEM_HEAVY_ATOM_COUNT>
20

> <PUBCHEM_ATOM_DEF_STEREO_COUNT>
0

> <PUBCHEM_ATOM_UDEF_STEREO_COUNT>
0

> <PUBCHEM_BOND_DEF_STEREO_COUNT>
0

> <PUBCHEM_BOND_UDEF_STEREO_COUNT>
0

> <PUBCHEM_ISOTOPIC_ATOM_COUNT>
0

> <PUBCHEM_COMPONENT_COUNT>
1

> <PUBCHEM_CACTVS_TAUTO_COUNT>
6

> <PUBCHEM_COORDINATE_TYPE>
1
5
255

> <PUBCHEM_BONDANNOTATIONS>
10  12  8
11  14  8
11  15  8
14  17  8
15  18  8
17  19  8
18  19  8
3  16  8
3  8  8
4  12  8
4  13  8
5  16  8
5  9  8
7  10  8
7  8  8
7  9  8
9  13  8

$$$$
6419753
  -OEChem-11021605012D

 48 52  0     0  0  0  0  0  0999 V2000
    9.1962    1.4108    0.0000 O   0  0  0  0  0  0  0  0  0  0  0  0
    9.1962    3.4801    0.0000 O   0  0  0  0  0  0  0  0  0  0  0  0
    2.0000   -3.5157    0.0000 O   0  0  0  0  0  0  0  0  0  0  0  0
    4.1215    1.1090    0.0000 N   0  0  0  0  0  0  0  0  0  0  0  0
    5.5996    0.4509    0.0000 N   0  0  0  0  0  0  0  0  0  0  0  0
    5.3258    3.4994    0.0000 N   0  0  0  0  0  0  0  0  0  0  0  0
    3.5823   -4.2202    0.0000 N   0  0  0  0  0  0  0  0  0  0  0  0
    5.7041    1.4454    0.0000 C   0  0  0  0  0  0  0  0  0  0  0  0
    6.5702    1.9454    0.0000 C   0  0  0  0  0  0  0  0  0  0  0  0
    4.7906    1.8522    0.0000 C   0  0  0  0  0  0  0  0  0  0  0  0
    4.6215    0.2430    0.0000 C   0  0  0  0  0  0  0  0  0  0  0  0
    8.3022    1.9454    0.0000 C   0  0  0  0  0  0  0  0  0  0  0  0
    7.4362    1.4454    0.0000 C   0  0  0  0  0  0  0  0  0  0  0  0
    8.3022    2.9454    0.0000 C   0  0  0  0  0  0  0  0  0  0  0  0
    6.5702    2.9454    0.0000 C   0  0  0  0  0  0  0  0  0  0  0  0
    4.2147   -0.6706    0.0000 C   0  0  0  0  0  0  0  0  0  0  0  0
    7.4362    3.4454    0.0000 C   0  0  0  0  0  0  0  0  0  0  0  0
    4.5827    2.8303    0.0000 C   0  0  0  0  0  0  0  0  0  0  0  0
   10.1022    1.9246    0.0000 C   0  0  0  0  0  0  0  0  0  0  0  0
   10.1022    2.9662    0.0000 C   0  0  0  0  0  0  0  0  0  0  0  0
    4.8025   -1.4796    0.0000 C   0  0  0  0  0  0  0  0  0  0  0  0
    3.2202   -0.7751    0.0000 C   0  0  0  0  0  0  0  0  0  0  0  0
    3.6316    3.1393    0.0000 C   0  0  0  0  0  0  0  0  0  0  0  0
    4.3958   -2.3931    0.0000 C   0  0  0  0  0  0  0  0  0  0  0  0
    2.8135   -1.6886    0.0000 C   0  0  0  0  0  0  0  0  0  0  0  0
    3.4013   -2.4976    0.0000 C   0  0  0  0  0  0  0  0  0  0  0  0
    3.4237    4.1175    0.0000 C   0  0  0  0  0  0  0  0  0  0  0  0
    5.1179    4.4776    0.0000 C   0  0  0  0  0  0  0  0  0  0  0  0
    4.1669    4.7866    0.0000 C   0  0  0  0  0  0  0  0  0  0  0  0
    2.9945   -3.4112    0.0000 C   0  0  0  0  0  0  0  0  0  0  0  0
    3.5049    1.1738    0.0000 H   0  0  0  0  0  0  0  0  0  0  0  0
    7.4362    0.8254    0.0000 H   0  0  0  0  0  0  0  0  0  0  0  0
    6.0332    3.2554    0.0000 H   0  0  0  0  0  0  0  0  0  0  0  0
    7.4362    4.0654    0.0000 H   0  0  0  0  0  0  0  0  0  0  0  0
   10.3113    1.3409    0.0000 H   0  0  0  0  0  0  0  0  0  0  0  0
   10.7131    2.0307    0.0000 H   0  0  0  0  0  0  0  0  0  0  0  0
   10.7131    2.8602    0.0000 H   0  0  0  0  0  0  0  0  0  0  0  0
   10.3113    3.5499    0.0000 H   0  0  0  0  0  0  0  0  0  0  0  0
    5.4191   -1.4148    0.0000 H   0  0  0  0  0  0  0  0  0  0  0  0
    2.8558   -0.2735    0.0000 H   0  0  0  0  0  0  0  0  0  0  0  0
    3.1709    2.7245    0.0000 H   0  0  0  0  0  0  0  0  0  0  0  0
    4.7602   -2.8947    0.0000 H   0  0  0  0  0  0  0  0  0  0  0  0
    2.1969   -1.7534    0.0000 H   0  0  0  0  0  0  0  0  0  0  0  0
    2.8341    4.3091    0.0000 H   0  0  0  0  0  0  0  0  0  0  0  0
    5.5787    4.8924    0.0000 H   0  0  0  0  0  0  0  0  0  0  0  0
    4.0380    5.3931    0.0000 H   0  0  0  0  0  0  0  0  0  0  0  0
    3.3301   -4.7866    0.0000 H   0  0  0  0  0  0  0  0  0  0  0  0
    4.1989   -4.1554    0.0000 H   0  0  0  0  0  0  0  0  0  0  0  0
  1 12  1  0  0  0  0
  1 19  1  0  0  0  0
  2 14  1  0  0  0  0
  2 20  1  0  0  0  0
  3 30  2  0  0  0  0
  4 10  1  0  0  0  0
  4 11  1  0  0  0  0
  4 31  1  0  0  0  0
  5  8  1  0  0  0  0
  5 11  2  0  0  0  0
  6 18  1  0  0  0  0
  6 28  2  0  0  0  0
  7 30  1  0  0  0  0
  7 47  1  0  0  0  0
  7 48  1  0  0  0  0
  8  9  1  0  0  0  0
  8 10  2  0  0  0  0
  9 13  2  0  0  0  0
  9 15  1  0  0  0  0
 10 18  1  0  0  0  0
 11 16  1  0  0  0  0
 12 13  1  0  0  0  0
 12 14  2  0  0  0  0
 13 32  1  0  0  0  0
 14 17  1  0  0  0  0
 15 17  2  0  0  0  0
 15 33  1  0  0  0  0
 16 21  2  0  0  0  0
 16 22  1  0  0  0  0
 17 34  1  0  0  0  0
 18 23  2  0  0  0  0
 19 20  1  0  0  0  0
 19 35  1  0  0  0  0
 19 36  1  0  0  0  0
 20 37  1  0  0  0  0
 20 38  1  0  0  0  0
 21 24  1  0  0  0  0
 21 39  1  0  0  0  0
 22 25  2  0  0  0  0
 22 40  1  0  0  0  0
 23 27  1  0  0  0  0
 23 41  1  0  0  0  0
 24 26  2  0  0  0  0
 24 42  1  0  0  0  0
 25 26  1  0  0  0  0
 25 43  1  0  0  0  0
 26 30  1  0  0  0  0
 27 29  2  0  0  0  0
 27 44  1  0  0  0  0
 28 29  1  0  0  0  0
 28 45  1  0  0  0  0
 29 46  1  0  0  0  0
M  END
> <PUBCHEM_COMPOUND_CID>
6419753

> <PUBCHEM_COMPOUND_CANONICALIZED>
1

> <PUBCHEM_CACTVS_COMPLEXITY>
597

> <PUBCHEM_CACTVS_HBOND_ACCEPTOR>
5

> <PUBCHEM_CACTVS_HBOND_DONOR>
2

> <PUBCHEM_CACTVS_ROTATABLE_BOND>
4

> <PUBCHEM_CACTVS_SUBSKEYS>
AAADceB7sAAAAAAAAAAAAAAAAAAAAWAAAAA8aIEAAAAAAACR9AAAHgAQAAAADAzhnwY9lpbJlACoAzd3dACCiC21MqAJ2SE+/NiNbvLE/ZuWOSrswBPK6ae42POOYAABAAAAQADAAAIAAACAAAAAAAAAAA==

> <PUBCHEM_IUPAC_OPENEYE_NAME>
4-[4-(2,3-dihydro-1,4-benzodioxin-6-yl)-5-(2-pyridyl)-1H-imidazol-2-yl]benzamide

> <PUBCHEM_IUPAC_CAS_NAME>
4-[4-(2,3-dihydro-1,4-benzodioxin-6-yl)-5-(2-pyridinyl)-1H-imidazol-2-yl]benzamide

> <PUBCHEM_IUPAC_NAME>
4-[4-(2,3-dihydro-1,4-benzodioxin-6-yl)-5-pyridin-2-yl-1H-imidazol-2-yl]benzamide

> <PUBCHEM_IUPAC_SYSTEMATIC_NAME>
4-[4-(2,3-dihydro-1,4-benzodioxin-6-yl)-5-pyridin-2-yl-1H-imidazol-2-yl]benzamide

> <PUBCHEM_IUPAC_TRADITIONAL_NAME>
4-[4-(2,3-dihydro-1,4-benzodioxin-6-yl)-5-(2-pyridyl)-1H-imidazol-2-yl]benzamide

> <PUBCHEM_IUPAC_INCHI>
InChI=1S/C23H18N4O3/c24-22(28)14-4-6-15(7-5-14)23-26-20(21(27-23)17-3-1-2-10-25-17)16-8-9-18-19(13-16)30-12-11-29-18/h1-10,13H,11-12H2,(H2,24,28)(H,26,27)

> <PUBCHEM_IUPAC_INCHIKEY>
DPDZHVCKYBCJHW-UHFFFAOYSA-N

> <PUBCHEM_XLOGP3_AA>
2.6

> <PUBCHEM_EXACT_MASS>
398.138

> <PUBCHEM_MOLECULAR_FORMULA>
C23H18N4O3

> <PUBCHEM_MOLECULAR_WEIGHT>
398.422

> <PUBCHEM_OPENEYE_CAN_SMILES>
C1COC2=C(O1)C=CC(=C2)C3=C(NC(=N3)C4=CC=C(C=C4)C(=O)N)C5=CC=CC=N5

> <PUBCHEM_OPENEYE_ISO_SMILES>
C1COC2=C(O1)C=CC(=C2)C3=C(NC(=N3)C4=CC=C(C=C4)C(=O)N)C5=CC=CC=N5

> <PUBCHEM_CACTVS_TPSA>
103

> <PUBCHEM_MONOISOTOPIC_WEIGHT>
398.138

> <PUBCHEM_TOTAL_CHARGE>
0

> <PUBCHEM_HEAVY_ATOM_COUNT>
30

> <PUBCHEM_ATOM_DEF_STEREO_COUNT>
0

> <PUBCHEM_ATOM_UDEF_STEREO_COUNT>
0

> <PUBCHEM_BOND_DEF_STEREO_COUNT>
0

> <PUBCHEM_BOND_UDEF_STEREO_COUNT>
0

> <PUBCHEM_ISOTOPIC_ATOM_COUNT>
0

> <PUBCHEM_COMPONENT_COUNT>
1

> <PUBCHEM_CACTVS_TAUTO_COUNT>
9

> <PUBCHEM_COORDINATE_TYPE>
1
5
255

> <PUBCHEM_BONDANNOTATIONS>
12  13  8
12  14  8
14  17  8
15  17  8
16  21  8
16  22  8
18  23  8
21  24  8
22  25  8
23  27  8
24  26  8
25  26  8
27  29  8
28  29  8
4  10  8
4  11  8
5  11  8
5  8  8
6  18  8
6  28  8
8  10  8
9  13  8
9  15  8

$$$$
2399
  -OEChem-11021605012D

 38 42  0     0  0  0  0  0  0999 V2000
    3.4026    1.2824    0.0000 O   0  0  0  0  0  0  0  0  0  0  0  0
    6.7523    2.3644    0.0000 O   0  0  0  0  0  0  0  0  0  0  0  0
    4.6783   -2.0893    0.0000 N   0  0  0  0  0  0  0  0  0  0  0  0
    7.6900   -1.1165    0.0000 N   0  0  0  0  0  0  0  0  0  0  0  0
    4.9917    2.0887    0.0000 N   0  0  0  0  0  0  0  0  0  0  0  0
    4.9889    0.4706    0.0000 C   0  0  0  0  0  0  0  0  0  0  0  0
    5.9405    0.7780    0.0000 C   0  0  0  0  0  0  0  0  0  0  0  0
    6.7485    0.1888    0.0000 C   0  0  0  0  0  0  0  0  0  0  0  0
    4.6783   -0.4799    0.0000 C   0  0  0  0  0  0  0  0  0  0  0  0
    3.7320   -0.7846    0.0000 C   0  0  0  0  0  0  0  0  0  0  0  0
    7.6942    0.4952    0.0000 C   0  0  0  0  0  0  0  0  0  0  0  0
    3.7320   -1.7846    0.0000 C   0  0  0  0  0  0  0  0  0  0  0  0
    8.2792   -0.3158    0.0000 C   0  0  0  0  0  0  0  0  0  0  0  0
    4.4026    1.2807    0.0000 C   0  0  0  0  0  0  0  0  0  0  0  0
    5.9422    1.7780    0.0000 C   0  0  0  0  0  0  0  0  0  0  0  0
    5.2619   -1.2846    0.0000 C   0  0  0  0  0  0  0  0  0  0  0  0
    6.7459   -0.8052    0.0000 C   0  0  0  0  0  0  0  0  0  0  0  0
    2.8660   -0.2846    0.0000 C   0  0  0  0  0  0  0  0  0  0  0  0
    8.1041    1.4073    0.0000 C   0  0  0  0  0  0  0  0  0  0  0  0
    2.8660   -2.2846    0.0000 C   0  0  0  0  0  0  0  0  0  0  0  0
    9.2741   -0.2148    0.0000 C   0  0  0  0  0  0  0  0  0  0  0  0
    2.0000   -0.7846    0.0000 C   0  0  0  0  0  0  0  0  0  0  0  0
    9.0990    1.5084    0.0000 C   0  0  0  0  0  0  0  0  0  0  0  0
    9.6840    0.6974    0.0000 C   0  0  0  0  0  0  0  0  0  0  0  0
    2.0000   -1.7846    0.0000 C   0  0  0  0  0  0  0  0  0  0  0  0
    6.2431   -1.1679    0.0000 H   0  0  0  0  0  0  0  0  0  0  0  0
    5.8819   -1.2846    0.0000 H   0  0  0  0  0  0  0  0  0  0  0  0
    7.8786   -1.7072    0.0000 H   0  0  0  0  0  0  0  0  0  0  0  0
    4.8709   -2.6787    0.0000 H   0  0  0  0  0  0  0  0  0  0  0  0
    4.8012    2.6787    0.0000 H   0  0  0  0  0  0  0  0  0  0  0  0
    7.7414    1.9102    0.0000 H   0  0  0  0  0  0  0  0  0  0  0  0
    2.8660    0.3354    0.0000 H   0  0  0  0  0  0  0  0  0  0  0  0
    9.6368   -0.7176    0.0000 H   0  0  0  0  0  0  0  0  0  0  0  0
    2.8660   -2.9046    0.0000 H   0  0  0  0  0  0  0  0  0  0  0  0
    9.3531    2.0739    0.0000 H   0  0  0  0  0  0  0  0  0  0  0  0
    1.4631   -0.4746    0.0000 H   0  0  0  0  0  0  0  0  0  0  0  0
   10.3008    0.7600    0.0000 H   0  0  0  0  0  0  0  0  0  0  0  0
    1.4631   -2.0946    0.0000 H   0  0  0  0  0  0  0  0  0  0  0  0
  1 14  2  0  0  0  0
  2 15  2  0  0  0  0
  3 12  1  0  0  0  0
  3 16  1  0  0  0  0
  3 29  1  0  0  0  0
  4 13  1  0  0  0  0
  4 17  1  0  0  0  0
  4 28  1  0  0  0  0
  5 14  1  0  0  0  0
  5 15  1  0  0  0  0
  5 30  1  0  0  0  0
  6  7  2  0  0  0  0
  6  9  1  0  0  0  0
  6 14  1  0  0  0  0
  7  8  1  0  0  0  0
  7 15  1  0  0  0  0
  8 11  1  0  0  0  0
  8 17  2  0  0  0  0
  9 10  1  0  0  0  0
  9 16  2  0  0  0  0
 10 12  1  0  0  0  0
 10 18  2  0  0  0  0
 11 13  1  0  0  0  0
 11 19  2  0  0  0  0
 12 20  2  0  0  0  0
 13 21  2  0  0  0  0
 16 27  1  0  0  0  0
 17 26  1  0  0  0  0
 18 22  1  0  0  0  0
 18 32  1  0  0  0  0
 19 23  1  0  0  0  0
 19 31  1  0  0  0  0
 20 25  1  0  0  0  0
 20 34  1  0  0  0  0
 21 24  1  0  0  0  0
 21 33  1  0  0  0  0
 22 25  2  0  0  0  0
 22 36  1  0  0  0  0
 23 24  2  0  0  0  0
 23 35  1  0  0  0  0
 24 37  1  0  0  0  0
 25 38  1  0  0  0  0
M  END
> <PUBCHEM_COMPOUND_CID>
2399

> <PUBCHEM_COMPOUND_CANONICALIZED>
1

> <PUBCHEM_CACTVS_COMPLEXITY>
576

> <PUBCHEM_CACTVS_HBOND_ACCEPTOR>
2

> <PUBCHEM_CACTVS_HBOND_DONOR>
3

> <PUBCHEM_CACTVS_ROTATABLE_BOND>
2

> <PUBCHEM_CACTVS_SUBSKEYS>
AAADccB7MAAAAAAAAAAAAAAAAAAAAWLEAAAwYAAAAAAAAFgB/gAAHgAQAAAADAjBngQ8wPLJkACoAzV3VACCgCAxAiAI2aE4ZNgIIPLAlZGEIAhglCDIyQccicCegAAAAAACAAAAAAAAAAQAAAAAAAAAAA==

> <PUBCHEM_IUPAC_OPENEYE_NAME>
3,4-bis(1H-indol-3-yl)pyrrole-2,5-dione

> <PUBCHEM_IUPAC_CAS_NAME>
3,4-bis(1H-indol-3-yl)pyrrole-2,5-dione

> <PUBCHEM_IUPAC_NAME>
3,4-bis(1H-indol-3-yl)pyrrole-2,5-dione

> <PUBCHEM_IUPAC_SYSTEMATIC_NAME>
3,4-bis(1H-indol-3-yl)pyrrole-2,5-dione

> <PUBCHEM_IUPAC_TRADITIONAL_NAME>
3,4-bis(1H-indol-3-yl)-3-pyrroline-2,5-quinone

> <PUBCHEM_IUPAC_INCHI>
InChI=1S/C20H13N3O2/c24-19-17(13-9-21-15-7-3-1-5-11(13)15)18(20(25)23-19)14-10-22-16-8-4-2-6-12(14)16/h1-10,21-22H,(H,23,24,25)

> <PUBCHEM_IUPAC_INCHIKEY>
DQYBRTASHMYDJG-UHFFFAOYSA-N

> <PUBCHEM_XLOGP3_AA>
2.8

> <PUBCHEM_EXACT_MASS>
327.101

> <PUBCHEM_MOLECULAR_FORMULA>
C20H13N3O2

> <PUBCHEM_MOLECULAR_WEIGHT>
327.343

> <PUBCHEM_OPENEYE_CAN_SMILES>
C1=CC=C2C(=C1)C(=CN2)C3=C(C(=O)NC3=O)C4=CNC5=CC=CC=C54

> <PUBCHEM_OPENEYE_ISO_SMILES>
C1=CC=C2C(=C1)C(=CN2)C3=C(C(=O)NC3=O)C4=CNC5=CC=CC=C54

> <PUBCHEM_CACTVS_TPSA>
77.8

> <PUBCHEM_MONOISOTOPIC_WEIGHT>
327.101

> <PUBCHEM_TOTAL_CHARGE>
0

> <PUBCHEM_HEAVY_ATOM_COUNT>
25

> <PUBCHEM_ATOM_DEF_STEREO_COUNT>
0

> <PUBCHEM_ATOM_UDEF_STEREO_COUNT>
0

> <PUBCHEM_BOND_DEF_STEREO_COUNT>
0

> <PUBCHEM_BOND_UDEF_STEREO_COUNT>
0

> <PUBCHEM_ISOTOPIC_ATOM_COUNT>
0

> <PUBCHEM_COMPONENT_COUNT>
1

> <PUBCHEM_CACTVS_TAUTO_COUNT>
17

> <PUBCHEM_COORDINATE_TYPE>
1
5
255

> <PUBCHEM_BONDANNOTATIONS>
10  12  8
10  18  8
11  13  8
11  19  8
12  20  8
13  21  8
18  22  8
19  23  8
20  25  8
21  24  8
22  25  8
23  24  8
3  12  8
3  16  8
4  13  8
4  17  8
8  11  8
8  17  8
9  10  8
9  16  8

$$$$
9858940
  -OEChem-11021605012D

 46 49  0     0  0  0  0  0  0999 V2000
    7.9472    0.1406    0.0000 O   0  0  0  0  0  0  0  0  0  0  0  0
    7.9472   -1.4688    0.0000 O   0  0  0  0  0  0  0  0  0  0  0  0
    2.8203    0.6723    0.0000 N   0  0  0  0  0  0  0  0  0  0  0  0
    4.2984    1.3304    0.0000 N   0  0  0  0  0  0  0  0  0  0  0  0
    4.0246   -1.7181    0.0000 N   0  0  0  0  0  0  0  0  0  0  0  0
    2.9136    2.4519    0.0000 C   0  0  0  0  0  0  0  0  0  0  0  0
    3.3203    1.5383    0.0000 C   0  0  0  0  0  0  0  0  0  0  0  0
    2.5068    3.3654    0.0000 C   0  0  0  0  0  0  0  0  0  0  0  0
    3.8271    2.8586    0.0000 C   0  0  0  0  0  0  0  0  0  0  0  0
    2.0000    2.0451    0.0000 C   0  0  0  0  0  0  0  0  0  0  0  0
    3.4894   -0.0709    0.0000 C   0  0  0  0  0  0  0  0  0  0  0  0
    4.4030    0.3359    0.0000 C   0  0  0  0  0  0  0  0  0  0  0  0
    5.2690   -0.1641    0.0000 C   0  0  0  0  0  0  0  0  0  0  0  0
    3.2815   -1.0490    0.0000 C   0  0  0  0  0  0  0  0  0  0  0  0
    6.1350    0.3359    0.0000 C   0  0  0  0  0  0  0  0  0  0  0  0
    5.2690   -1.1641    0.0000 C   0  0  0  0  0  0  0  0  0  0  0  0
    7.0010   -0.1641    0.0000 C   0  0  0  0  0  0  0  0  0  0  0  0
    7.0010   -1.1641    0.0000 C   0  0  0  0  0  0  0  0  0  0  0  0
    6.1350   -1.6641    0.0000 C   0  0  0  0  0  0  0  0  0  0  0  0
    2.3304   -1.3580    0.0000 C   0  0  0  0  0  0  0  0  0  0  0  0
    3.8167   -2.6963    0.0000 C   0  0  0  0  0  0  0  0  0  0  0  0
    8.5309   -0.6641    0.0000 C   0  0  0  0  0  0  0  0  0  0  0  0
    2.1225   -2.3362    0.0000 C   0  0  0  0  0  0  0  0  0  0  0  0
    2.8657   -3.0053    0.0000 C   0  0  0  0  0  0  0  0  0  0  0  0
    4.5599   -3.3654    0.0000 C   0  0  0  0  0  0  0  0  0  0  0  0
    1.7478    2.6115    0.0000 H   0  0  0  0  0  0  0  0  0  0  0  0
    3.0732    3.6176    0.0000 H   0  0  0  0  0  0  0  0  0  0  0  0
    2.2546    3.9318    0.0000 H   0  0  0  0  0  0  0  0  0  0  0  0
    1.9404    3.1132    0.0000 H   0  0  0  0  0  0  0  0  0  0  0  0
    4.0793    2.2922    0.0000 H   0  0  0  0  0  0  0  0  0  0  0  0
    4.3935    3.1108    0.0000 H   0  0  0  0  0  0  0  0  0  0  0  0
    3.5749    3.4250    0.0000 H   0  0  0  0  0  0  0  0  0  0  0  0
    1.4336    1.7930    0.0000 H   0  0  0  0  0  0  0  0  0  0  0  0
    2.2522    1.4787    0.0000 H   0  0  0  0  0  0  0  0  0  0  0  0
    2.2037    0.6075    0.0000 H   0  0  0  0  0  0  0  0  0  0  0  0
    6.1350    0.9559    0.0000 H   0  0  0  0  0  0  0  0  0  0  0  0
    4.7320   -1.4741    0.0000 H   0  0  0  0  0  0  0  0  0  0  0  0
    6.1350   -2.2841    0.0000 H   0  0  0  0  0  0  0  0  0  0  0  0
    1.8697   -0.9432    0.0000 H   0  0  0  0  0  0  0  0  0  0  0  0
    8.9917   -1.0788    0.0000 H   0  0  0  0  0  0  0  0  0  0  0  0
    8.9917   -0.2494    0.0000 H   0  0  0  0  0  0  0  0  0  0  0  0
    1.5329   -2.5278    0.0000 H   0  0  0  0  0  0  0  0  0  0  0  0
    2.7368   -3.6118    0.0000 H   0  0  0  0  0  0  0  0  0  0  0  0
    4.1450   -3.8262    0.0000 H   0  0  0  0  0  0  0  0  0  0  0  0
    5.0206   -3.7803    0.0000 H   0  0  0  0  0  0  0  0  0  0  0  0
    4.9747   -2.9047    0.0000 H   0  0  0  0  0  0  0  0  0  0  0  0
  1 17  1  0  0  0  0
  1 22  1  0  0  0  0
  2 18  1  0  0  0  0
  2 22  1  0  0  0  0
  3  7  1  0  0  0  0
  3 11  1  0  0  0  0
  3 35  1  0  0  0  0
  4  7  2  0  0  0  0
  4 12  1  0  0  0  0
  5 14  1  0  0  0  0
  5 21  2  0  0  0  0
  6  7  1  0  0  0  0
  6  8  1  0  0  0  0
  6  9  1  0  0  0  0
  6 10  1  0  0  0  0
  8 27  1  0  0  0  0
  8 28  1  0  0  0  0
  8 29  1  0  0  0  0
  9 30  1  0  0  0  0
  9 31  1  0  0  0  0
  9 32  1  0  0  0  0
 10 26  1  0  0  0  0
 10 33  1  0  0  0  0
 10 34  1  0  0  0  0
 11 12  2  0  0  0  0
 11 14  1  0  0  0  0
 12 13  1  0  0  0  0
 13 15  2  0  0  0  0
 13 16  1  0  0  0  0
 14 20  2  0  0  0  0
 15 17  1  0  0  0  0
 15 36  1  0  0  0  0
 16 19  2  0  0  0  0
 16 37  1  0  0  0  0
 17 18  2  0  0  0  0
 18 19  1  0  0  0  0
 19 38  1  0  0  0  0
 20 23  1  0  0  0  0
 20 39  1  0  0  0  0
 21 24  1  0  0  0  0
 21 25  1  0  0  0  0
 22 40  1  0  0  0  0
 22 41  1  0  0  0  0
 23 24  2  0  0  0  0
 23 42  1  0  0  0  0
 24 43  1  0  0  0  0
 25 44  1  0  0  0  0
 25 45  1  0  0  0  0
 25 46  1  0  0  0  0
M  END
> <PUBCHEM_COMPOUND_CID>
9858940

> <PUBCHEM_COMPOUND_CANONICALIZED>
1

> <PUBCHEM_CACTVS_COMPLEXITY>
466

> <PUBCHEM_CACTVS_HBOND_ACCEPTOR>
4

> <PUBCHEM_CACTVS_HBOND_DONOR>
1

> <PUBCHEM_CACTVS_ROTATABLE_BOND>
3

> <PUBCHEM_CACTVS_SUBSKEYS>
AAADceB7MAAAAAAAAAAAAAAAAAAAAWJAAAA8QAAAAAAAAEgB8AAAHgAQAAAADgyBnwMznpbJlACgAyZiZACCiC2hMqAJmSA2/JidbuLE+Zu0MCpswBPO6Cew0PMOIAABAAAAQABAAAIAAACAAAAAAAAAAA==

> <PUBCHEM_IUPAC_OPENEYE_NAME>
2-[4-(1,3-benzodioxol-5-yl)-2-tert-butyl-1H-imidazol-5-yl]-6-methyl-pyridine

> <PUBCHEM_IUPAC_CAS_NAME>
2-[4-(1,3-benzodioxol-5-yl)-2-tert-butyl-1H-imidazol-5-yl]-6-methylpyridine

> <PUBCHEM_IUPAC_NAME>
2-[4-(1,3-benzodioxol-5-yl)-2-tert-butyl-1H-imidazol-5-yl]-6-methylpyridine

> <PUBCHEM_IUPAC_SYSTEMATIC_NAME>
2-[4-(1,3-benzodioxol-5-yl)-2-tert-butyl-1H-imidazol-5-yl]-6-methyl-pyridine

> <PUBCHEM_IUPAC_TRADITIONAL_NAME>
2-[4-(1,3-benzodioxol-5-yl)-2-tert-butyl-1H-imidazol-5-yl]-6-methyl-pyridine

> <PUBCHEM_IUPAC_INCHI>
InChI=1S/C20H21N3O2/c1-12-6-5-7-14(21-12)18-17(22-19(23-18)20(2,3)4)13-8-9-15-16(10-13)25-11-24-15/h5-10H,11H2,1-4H3,(H,22,23)

> <PUBCHEM_IUPAC_INCHIKEY>
WGZOTBUYUFBEPZ-UHFFFAOYSA-N

> <PUBCHEM_XLOGP3_AA>
4.3

> <PUBCHEM_EXACT_MASS>
335.163

> <PUBCHEM_MOLECULAR_FORMULA>
C20H21N3O2

> <PUBCHEM_MOLECULAR_WEIGHT>
335.407

> <PUBCHEM_OPENEYE_CAN_SMILES>
CC1=CC=CC(=N1)C2=C(N=C(N2)C(C)(C)C)C3=CC4=C(C=C3)OCO4

> <PUBCHEM_OPENEYE_ISO_SMILES>
CC1=CC=CC(=N1)C2=C(N=C(N2)C(C)(C)C)C3=CC4=C(C=C3)OCO4

> <PUBCHEM_CACTVS_TPSA>
60

> <PUBCHEM_MONOISOTOPIC_WEIGHT>
335.163

> <PUBCHEM_TOTAL_CHARGE>
0

> <PUBCHEM_HEAVY_ATOM_COUNT>
25

> <PUBCHEM_ATOM_DEF_STEREO_COUNT>
0

> <PUBCHEM_ATOM_UDEF_STEREO_COUNT>
0

> <PUBCHEM_BOND_DEF_STEREO_COUNT>
0

> <PUBCHEM_BOND_UDEF_STEREO_COUNT>
0

> <PUBCHEM_ISOTOPIC_ATOM_COUNT>
0

> <PUBCHEM_COMPONENT_COUNT>
1

> <PUBCHEM_CACTVS_TAUTO_COUNT>
3

> <PUBCHEM_COORDINATE_TYPE>
1
5
255

> <PUBCHEM_BONDANNOTATIONS>
11  12  8
13  15  8
13  16  8
14  20  8
15  17  8
16  19  8
17  18  8
18  19  8
20  23  8
21  24  8
23  24  8
3  11  8
3  7  8
4  12  8
4  7  8
5  14  8
5  21  8

$$$$
5287855
  -OEChem-11021605012D

 24 26  0     0  0  0  0  0  0999 V2000
    4.0948   -0.6290    0.0000 S   0  0  0  0  0  0  0  0  0  0  0  0
   10.0022   -0.7222    0.0000 F   0  0  0  0  0  0  0  0  0  0  0  0
   10.0022    0.4533    0.0000 F   0  0  0  0  0  0  0  0  0  0  0  0
    8.6096    0.6703    0.0000 O   0  0  0  0  0  0  0  0  0  0  0  0
    8.6096   -0.9392    0.0000 O   0  0  0  0  0  0  0  0  0  0  0  0
    3.0778    1.7504    0.0000 O   0  0  0  0  0  0  0  0  0  0  0  0
    2.7099   -1.7504    0.0000 O   0  0  0  0  0  0  0  0  0  0  0  0
    2.6166    0.0291    0.0000 N   0  0  0  0  0  0  0  0  0  0  0  0
    7.6634    0.3655    0.0000 C   0  0  0  0  0  0  0  0  0  0  0  0
    7.6634   -0.6345    0.0000 C   0  0  0  0  0  0  0  0  0  0  0  0
    5.9313    0.3655    0.0000 C   0  0  0  0  0  0  0  0  0  0  0  0
    6.7974    0.8655    0.0000 C   0  0  0  0  0  0  0  0  0  0  0  0
    6.7974   -1.1344    0.0000 C   0  0  0  0  0  0  0  0  0  0  0  0
    5.9313   -0.6345    0.0000 C   0  0  0  0  0  0  0  0  0  0  0  0
    5.0653    0.8655    0.0000 C   0  0  0  0  0  0  0  0  0  0  0  0
    9.1932   -0.1345    0.0000 C   0  0  0  0  0  0  0  0  0  0  0  0
    4.1993    0.3655    0.0000 C   0  0  0  0  0  0  0  0  0  0  0  0
    3.2857    0.7723    0.0000 C   0  0  0  0  0  0  0  0  0  0  0  0
    3.1166   -0.8369    0.0000 C   0  0  0  0  0  0  0  0  0  0  0  0
    6.7974    1.4856    0.0000 H   0  0  0  0  0  0  0  0  0  0  0  0
    6.7974   -1.7544    0.0000 H   0  0  0  0  0  0  0  0  0  0  0  0
    5.3944   -0.9445    0.0000 H   0  0  0  0  0  0  0  0  0  0  0  0
    5.0653    1.4856    0.0000 H   0  0  0  0  0  0  0  0  0  0  0  0
    2.0000    0.0939    0.0000 H   0  0  0  0  0  0  0  0  0  0  0  0
  1 17  1  0  0  0  0
  1 19  1  0  0  0  0
  2 16  1  0  0  0  0
  3 16  1  0  0  0  0
  4  9  1  0  0  0  0
  4 16  1  0  0  0  0
  5 10  1  0  0  0  0
  5 16  1  0  0  0  0
  6 18  2  0  0  0  0
  7 19  2  0  0  0  0
  8 18  1  0  0  0  0
  8 19  1  0  0  0  0
  8 24  1  0  0  0  0
  9 10  2  0  0  0  0
  9 12  1  0  0  0  0
 10 13  1  0  0  0  0
 11 12  2  0  0  0  0
 11 14  1  0  0  0  0
 11 15  1  0  0  0  0
 12 20  1  0  0  0  0
 13 14  2  0  0  0  0
 13 21  1  0  0  0  0
 14 22  1  0  0  0  0
 15 17  2  0  0  0  0
 15 23  1  0  0  0  0
 17 18  1  0  0  0  0
M  END
> <PUBCHEM_COMPOUND_CID>
5287855

> <PUBCHEM_COMPOUND_CANONICALIZED>
1

> <PUBCHEM_CACTVS_COMPLEXITY>
468

> <PUBCHEM_CACTVS_HBOND_ACCEPTOR>
7

> <PUBCHEM_CACTVS_HBOND_DONOR>
1

> <PUBCHEM_CACTVS_ROTATABLE_BOND>
1

> <PUBCHEM_CACTVS_SUBSKEYS>
AAADcYByOYBAAAAAAAAAAAAAAAAAAWJAAAAwAAAAAAAAAEgBAAAAHwQQAAAADASB2BAwDoLABAiIAiFSEACCCABgIBAIiAAGiMgdJiKEMRqgMCIkxDEOqYeAwBAOIAABAAAAQABAAAIAAACAAAAAAAAAAA==

> <PUBCHEM_IUPAC_OPENEYE_NAME>
(5Z)-5-[(2,2-difluoro-1,3-benzodioxol-5-yl)methylene]thiazolidine-2,4-dione

> <PUBCHEM_IUPAC_CAS_NAME>
(5Z)-5-[(2,2-difluoro-1,3-benzodioxol-5-yl)methylidene]thiazolidine-2,4-dione

> <PUBCHEM_IUPAC_NAME>
(5Z)-5-[(2,2-difluoro-1,3-benzodioxol-5-yl)methylidene]-1,3-thiazolidine-2,4-dione

> <PUBCHEM_IUPAC_SYSTEMATIC_NAME>
(5Z)-5-[[2,2-bis(fluoranyl)-1,3-benzodioxol-5-yl]methylidene]-1,3-thiazolidine-2,4-dione

> <PUBCHEM_IUPAC_TRADITIONAL_NAME>
(5Z)-5-[(2,2-difluoro-1,3-benzodioxol-5-yl)methylene]thiazolidine-2,4-quinone

> <PUBCHEM_IUPAC_INCHI>
InChI=1S/C11H5F2NO4S/c12-11(13)17-6-2-1-5(3-7(6)18-11)4-8-9(15)14-10(16)19-8/h1-4H,(H,14,15,16)/b8-4-

> <PUBCHEM_IUPAC_INCHIKEY>
SRLVNYDXMUGOFI-YWEYNIOJSA-N

> <PUBCHEM_XLOGP3_AA>
2.8

> <PUBCHEM_EXACT_MASS>
284.991

> <PUBCHEM_MOLECULAR_FORMULA>
C11H5F2NO4S

> <PUBCHEM_MOLECULAR_WEIGHT>
285.221

> <PUBCHEM_OPENEYE_CAN_SMILES>
C1=CC2=C(C=C1C=C3C(=O)NC(=O)S3)OC(O2)(F)F

> <PUBCHEM_OPENEYE_ISO_SMILES>
C1=CC2=C(C=C1/C=C\3/C(=O)NC(=O)S3)OC(O2)(F)F

> <PUBCHEM_CACTVS_TPSA>
89.9

> <PUBCHEM_MONOISOTOPIC_WEIGHT>
284.991

> <PUBCHEM_TOTAL_CHARGE>
0

> <PUBCHEM_HEAVY_ATOM_COUNT>
19

> <PUBCHEM_ATOM_DEF_STEREO_COUNT>
0

> <PUBCHEM_ATOM_UDEF_STEREO_COUNT>
0

> <PUBCHEM_BOND_DEF_STEREO_COUNT>
1

> <PUBCHEM_BOND_UDEF_STEREO_COUNT>
0

> <PUBCHEM_ISOTOPIC_ATOM_COUNT>
0

> <PUBCHEM_COMPONENT_COUNT>
1

> <PUBCHEM_CACTVS_TAUTO_COUNT>
3

> <PUBCHEM_COORDINATE_TYPE>
1
5
255

> <PUBCHEM_BONDANNOTATIONS>
10  13  8
11  12  8
11  14  8
13  14  8
9  10  8
9  12  8

$$$$
5329103
  -OEChem-11021605012D

 56 58  0     0  0  0  0  0  0999 V2000
    2.0000   -1.4372    0.0000 Cl  0  0  0  0  0  0  0  0  0  0  0  0
    8.5992    2.0245    0.0000 O   0  0  0  0  0  0  0  0  0  0  0  0
    7.1279   -2.4372    0.0000 O   0  0  0  0  0  0  0  0  0  0  0  0
   12.2029    2.1376    0.0000 N   0  0  0  0  0  0  0  0  0  0  0  0
    7.5754   -1.1461    0.0000 N   0  0  0  0  0  0  0  0  0  0  0  0
    9.8843    0.8633    0.0000 N   0  0  0  0  0  0  0  0  0  0  0  0
    5.5443   -3.2419    0.0000 N   0  0  0  0  0  0  0  0  0  0  0  0
   11.5325    1.3957    0.0000 C   0  0  0  0  0  0  0  0  0  0  0  0
    8.2361    0.3309    0.0000 C   0  0  0  0  0  0  0  0  0  0  0  0
    7.2418    0.4371    0.0000 C   0  0  0  0  0  0  0  0  0  0  0  0
    6.8335   -0.4757    0.0000 C   0  0  0  0  0  0  0  0  0  0  0  0
   10.5547    1.6053    0.0000 C   0  0  0  0  0  0  0  0  0  0  0  0
    8.4423   -0.6476    0.0000 C   0  0  0  0  0  0  0  0  0  0  0  0
   13.1807    1.9280    0.0000 C   0  0  0  0  0  0  0  0  0  0  0  0
   11.8956    3.0892    0.0000 C   0  0  0  0  0  0  0  0  0  0  0  0
    8.9065    1.0729    0.0000 C   0  0  0  0  0  0  0  0  0  0  0  0
    5.5443   -1.6324    0.0000 C   0  0  0  0  0  0  0  0  0  0  0  0
    5.8550   -0.6819    0.0000 C   0  0  0  0  0  0  0  0  0  0  0  0
    4.5981   -1.9372    0.0000 C   0  0  0  0  0  0  0  0  0  0  0  0
    6.7433    1.3040    0.0000 C   0  0  0  0  0  0  0  0  0  0  0  0
    4.5981   -2.9372    0.0000 C   0  0  0  0  0  0  0  0  0  0  0  0
    9.3552   -1.0559    0.0000 C   0  0  0  0  0  0  0  0  0  0  0  0
    6.1279   -2.4372    0.0000 C   0  0  0  0  0  0  0  0  0  0  0  0
   13.8511    2.6700    0.0000 C   0  0  0  0  0  0  0  0  0  0  0  0
   12.5660    3.8312    0.0000 C   0  0  0  0  0  0  0  0  0  0  0  0
    3.7320   -1.4372    0.0000 C   0  0  0  0  0  0  0  0  0  0  0  0
    3.7320   -3.4372    0.0000 C   0  0  0  0  0  0  0  0  0  0  0  0
    2.8660   -1.9372    0.0000 C   0  0  0  0  0  0  0  0  0  0  0  0
    2.8660   -2.9372    0.0000 C   0  0  0  0  0  0  0  0  0  0  0  0
   11.2993    0.8212    0.0000 H   0  0  0  0  0  0  0  0  0  0  0  0
   12.0577    1.0662    0.0000 H   0  0  0  0  0  0  0  0  0  0  0  0
   10.7880    2.1797    0.0000 H   0  0  0  0  0  0  0  0  0  0  0  0
   10.0295    1.9347    0.0000 H   0  0  0  0  0  0  0  0  0  0  0  0
    7.5096   -1.7626    0.0000 H   0  0  0  0  0  0  0  0  0  0  0  0
   12.9475    1.3536    0.0000 H   0  0  0  0  0  0  0  0  0  0  0  0
   13.7059    1.5986    0.0000 H   0  0  0  0  0  0  0  0  0  0  0  0
   11.5147    3.5785    0.0000 H   0  0  0  0  0  0  0  0  0  0  0  0
   11.3476    2.7991    0.0000 H   0  0  0  0  0  0  0  0  0  0  0  0
    5.4409   -0.2204    0.0000 H   0  0  0  0  0  0  0  0  0  0  0  0
   10.0749    0.2733    0.0000 H   0  0  0  0  0  0  0  0  0  0  0  0
    7.2808    1.6131    0.0000 H   0  0  0  0  0  0  0  0  0  0  0  0
    6.4342    1.8415    0.0000 H   0  0  0  0  0  0  0  0  0  0  0  0
    6.2058    0.9950    0.0000 H   0  0  0  0  0  0  0  0  0  0  0  0
    9.1020   -1.6219    0.0000 H   0  0  0  0  0  0  0  0  0  0  0  0
    9.9211   -1.3091    0.0000 H   0  0  0  0  0  0  0  0  0  0  0  0
    9.6083   -0.4900    0.0000 H   0  0  0  0  0  0  0  0  0  0  0  0
   13.0260    3.4156    0.0000 H   0  0  0  0  0  0  0  0  0  0  0  0
   12.9816    4.2912    0.0000 H   0  0  0  0  0  0  0  0  0  0  0  0
   12.1060    4.2469    0.0000 H   0  0  0  0  0  0  0  0  0  0  0  0
   14.3112    2.2544    0.0000 H   0  0  0  0  0  0  0  0  0  0  0  0
   14.2668    3.1301    0.0000 H   0  0  0  0  0  0  0  0  0  0  0  0
   13.3911    3.0857    0.0000 H   0  0  0  0  0  0  0  0  0  0  0  0
    5.7369   -3.8312    0.0000 H   0  0  0  0  0  0  0  0  0  0  0  0
    3.7320   -0.8172    0.0000 H   0  0  0  0  0  0  0  0  0  0  0  0
    3.7320   -4.0572    0.0000 H   0  0  0  0  0  0  0  0  0  0  0  0
    2.3291   -3.2472    0.0000 H   0  0  0  0  0  0  0  0  0  0  0  0
  1 28  1  0  0  0  0
  2 16  2  0  0  0  0
  3 23  2  0  0  0  0
  4  8  1  0  0  0  0
  4 14  1  0  0  0  0
  4 15  1  0  0  0  0
  5 11  1  0  0  0  0
  5 13  1  0  0  0  0
  5 34  1  0  0  0  0
  6 12  1  0  0  0  0
  6 16  1  0  0  0  0
  6 40  1  0  0  0  0
  7 21  1  0  0  0  0
  7 23  1  0  0  0  0
  7 53  1  0  0  0  0
  8 12  1  0  0  0  0
  8 30  1  0  0  0  0
  8 31  1  0  0  0  0
  9 10  1  0  0  0  0
  9 13  2  0  0  0  0
  9 16  1  0  0  0  0
 10 11  2  0  0  0  0
 10 20  1  0  0  0  0
 11 18  1  0  0  0  0
 12 32  1  0  0  0  0
 12 33  1  0  0  0  0
 13 22  1  0  0  0  0
 14 24  1  0  0  0  0
 14 35  1  0  0  0  0
 14 36  1  0  0  0  0
 15 25  1  0  0  0  0
 15 37  1  0  0  0  0
 15 38  1  0  0  0  0
 17 18  2  0  0  0  0
 17 19  1  0  0  0  0
 17 23  1  0  0  0  0
 18 39  1  0  0  0  0
 19 21  2  0  0  0  0
 19 26  1  0  0  0  0
 20 41  1  0  0  0  0
 20 42  1  0  0  0  0
 20 43  1  0  0  0  0
 21 27  1  0  0  0  0
 22 44  1  0  0  0  0
 22 45  1  0  0  0  0
 22 46  1  0  0  0  0
 24 50  1  0  0  0  0
 24 51  1  0  0  0  0
 24 52  1  0  0  0  0
 25 47  1  0  0  0  0
 25 48  1  0  0  0  0
 25 49  1  0  0  0  0
 26 28  2  0  0  0  0
 26 54  1  0  0  0  0
 27 29  2  0  0  0  0
 27 55  1  0  0  0  0
 28 29  1  0  0  0  0
 29 56  1  0  0  0  0
M  END
> <PUBCHEM_COMPOUND_CID>
5329103

> <PUBCHEM_COMPOUND_CANONICALIZED>
1

> <PUBCHEM_CACTVS_COMPLEXITY>
636

> <PUBCHEM_CACTVS_HBOND_ACCEPTOR>
3

> <PUBCHEM_CACTVS_HBOND_DONOR>
3

> <PUBCHEM_CACTVS_ROTATABLE_BOND>
7

> <PUBCHEM_CACTVS_SUBSKEYS>
AAADceB7sAAEAAAAAAAAAAAAAAAAAWLAAAAwAAAAAAAAAFgBwAAAHgIQAAAADArBniQywJPJkACoAyVyVACCgCAlByAImaE4ZtgIYHrB15GUIYhglgDIyccciICOgABAIAACAAAAAIBAAAQAAAAAAAAAAA==

> <PUBCHEM_IUPAC_OPENEYE_NAME>
5-[(Z)-(5-chloro-2-oxo-indolin-3-ylidene)methyl]-N-[2-(diethylamino)ethyl]-2,4-dimethyl-1H-pyrrole-3-carboxamide

> <PUBCHEM_IUPAC_CAS_NAME>
5-[(Z)-(5-chloro-2-oxo-1H-indol-3-ylidene)methyl]-N-[2-(diethylamino)ethyl]-2,4-dimethyl-1H-pyrrole-3-carboxamide

> <PUBCHEM_IUPAC_NAME>
5-[(Z)-(5-chloro-2-oxo-1H-indol-3-ylidene)methyl]-N-[2-(diethylamino)ethyl]-2,4-dimethyl-1H-pyrrole-3-carboxamide

> <PUBCHEM_IUPAC_SYSTEMATIC_NAME>
5-[(Z)-(5-chloranyl-2-oxidanylidene-1H-indol-3-ylidene)methyl]-N-[2-(diethylamino)ethyl]-2,4-dimethyl-1H-pyrrole-3-carboxamide

> <PUBCHEM_IUPAC_TRADITIONAL_NAME>
5-[(Z)-(5-chloro-2-keto-indolin-3-ylidene)methyl]-N-[2-(diethylamino)ethyl]-2,4-dimethyl-1H-pyrrole-3-carboxamide

> <PUBCHEM_IUPAC_INCHI>
InChI=1S/C22H27ClN4O2/c1-5-27(6-2)10-9-24-22(29)20-13(3)19(25-14(20)4)12-17-16-11-15(23)7-8-18(16)26-21(17)28/h7-8,11-12,25H,5-6,9-10H2,1-4H3,(H,24,29)(H,26,28)/b17-12-

> <PUBCHEM_IUPAC_INCHIKEY>
XPLJEFSRINKZLC-ATVHPVEESA-N

> <PUBCHEM_XLOGP3_AA>
3.2

> <PUBCHEM_EXACT_MASS>
414.182

> <PUBCHEM_MOLECULAR_FORMULA>
C22H27ClN4O2

> <PUBCHEM_MOLECULAR_WEIGHT>
414.934

> <PUBCHEM_OPENEYE_CAN_SMILES>
CCN(CC)CCNC(=O)C1=C(NC(=C1C)C=C2C3=C(C=CC(=C3)Cl)NC2=O)C

> <PUBCHEM_OPENEYE_ISO_SMILES>
CCN(CC)CCNC(=O)C1=C(NC(=C1C)/C=C\2/C3=C(C=CC(=C3)Cl)NC2=O)C

> <PUBCHEM_CACTVS_TPSA>
77.2

> <PUBCHEM_MONOISOTOPIC_WEIGHT>
414.182

> <PUBCHEM_TOTAL_CHARGE>
0

> <PUBCHEM_HEAVY_ATOM_COUNT>
29

> <PUBCHEM_ATOM_DEF_STEREO_COUNT>
0

> <PUBCHEM_ATOM_UDEF_STEREO_COUNT>
0

> <PUBCHEM_BOND_DEF_STEREO_COUNT>
1

> <PUBCHEM_BOND_UDEF_STEREO_COUNT>
0

> <PUBCHEM_ISOTOPIC_ATOM_COUNT>
0

> <PUBCHEM_COMPONENT_COUNT>
1

> <PUBCHEM_CACTVS_TAUTO_COUNT>
53

> <PUBCHEM_COORDINATE_TYPE>
1
5
255

> <PUBCHEM_BONDANNOTATIONS>
10  11  8
19  21  8
19  26  8
21  27  8
26  28  8
27  29  8
28  29  8
5  11  8
5  13  8
9  10  8
9  13  8

$$$$
16760391
  -OEChem-11021605012D

 38 40  0     0  0  0  0  0  0999 V2000
    4.2690   -4.0000    0.0000 O   0  0  0  0  0  0  0  0  0  0  0  0
    2.5369    1.0000    0.0000 O   0  0  0  0  0  0  0  0  0  0  0  0
    3.4030    2.5000    0.0000 O   0  0  0  0  0  0  0  0  0  0  0  0
    4.2690   -2.0000    0.0000 N   0  0  0  0  0  0  0  0  0  0  0  0
    5.1350   -2.5000    0.0000 C   0  0  0  0  0  0  0  0  0  0  0  0
    3.4030   -2.5000    0.0000 C   0  0  0  0  0  0  0  0  0  0  0  0
    5.1350   -3.5000    0.0000 C   0  0  0  0  0  0  0  0  0  0  0  0
    3.4030   -3.5000    0.0000 C   0  0  0  0  0  0  0  0  0  0  0  0
    4.2690   -1.0000    0.0000 C   0  0  0  0  0  0  0  0  0  0  0  0
    3.4030   -0.5000    0.0000 C   0  0  0  0  0  0  0  0  0  0  0  0
    5.1350   -0.5000    0.0000 C   0  0  0  0  0  0  0  0  0  0  0  0
    4.2690    1.0000    0.0000 C   0  0  0  0  0  0  0  0  0  0  0  0
    3.4030    0.5000    0.0000 C   0  0  0  0  0  0  0  0  0  0  0  0
    5.1350    0.5000    0.0000 C   0  0  0  0  0  0  0  0  0  0  0  0
    4.2690    2.0000    0.0000 C   0  0  0  0  0  0  0  0  0  0  0  0
    5.1350    2.5000    0.0000 C   0  0  0  0  0  0  0  0  0  0  0  0
    6.0010    2.0000    0.0000 C   0  0  0  0  0  0  0  0  0  0  0  0
    5.1350    3.5000    0.0000 C   0  0  0  0  0  0  0  0  0  0  0  0
    6.8671    2.5000    0.0000 C   0  0  0  0  0  0  0  0  0  0  0  0
    6.0010    4.0000    0.0000 C   0  0  0  0  0  0  0  0  0  0  0  0
    6.8671    3.5000    0.0000 C   0  0  0  0  0  0  0  0  0  0  0  0
    5.7456   -2.6077    0.0000 H   0  0  0  0  0  0  0  0  0  0  0  0
    5.3471   -1.9174    0.0000 H   0  0  0  0  0  0  0  0  0  0  0  0
    3.1909   -1.9174    0.0000 H   0  0  0  0  0  0  0  0  0  0  0  0
    2.7924   -2.6077    0.0000 H   0  0  0  0  0  0  0  0  0  0  0  0
    5.3471   -4.0826    0.0000 H   0  0  0  0  0  0  0  0  0  0  0  0
    5.7456   -3.3923    0.0000 H   0  0  0  0  0  0  0  0  0  0  0  0
    2.7924   -3.3923    0.0000 H   0  0  0  0  0  0  0  0  0  0  0  0
    3.1909   -4.0826    0.0000 H   0  0  0  0  0  0  0  0  0  0  0  0
    2.8660   -0.8100    0.0000 H   0  0  0  0  0  0  0  0  0  0  0  0
    5.6720   -0.8100    0.0000 H   0  0  0  0  0  0  0  0  0  0  0  0
    5.6720    0.8100    0.0000 H   0  0  0  0  0  0  0  0  0  0  0  0
    2.0000    0.6900    0.0000 H   0  0  0  0  0  0  0  0  0  0  0  0
    6.0010    1.3800    0.0000 H   0  0  0  0  0  0  0  0  0  0  0  0
    4.5981    3.8100    0.0000 H   0  0  0  0  0  0  0  0  0  0  0  0
    7.4040    2.1900    0.0000 H   0  0  0  0  0  0  0  0  0  0  0  0
    6.0010    4.6200    0.0000 H   0  0  0  0  0  0  0  0  0  0  0  0
    7.4040    3.8100    0.0000 H   0  0  0  0  0  0  0  0  0  0  0  0
  1  7  1  0  0  0  0
  1  8  1  0  0  0  0
  2 13  1  0  0  0  0
  2 33  1  0  0  0  0
  3 15  2  0  0  0  0
  4  5  1  0  0  0  0
  4  6  1  0  0  0  0
  4  9  1  0  0  0  0
  5  7  1  0  0  0  0
  5 22  1  0  0  0  0
  5 23  1  0  0  0  0
  6  8  1  0  0  0  0
  6 24  1  0  0  0  0
  6 25  1  0  0  0  0
  7 26  1  0  0  0  0
  7 27  1  0  0  0  0
  8 28  1  0  0  0  0
  8 29  1  0  0  0  0
  9 10  2  0  0  0  0
  9 11  1  0  0  0  0
 10 13  1  0  0  0  0
 10 30  1  0  0  0  0
 11 14  2  0  0  0  0
 11 31  1  0  0  0  0
 12 13  2  0  0  0  0
 12 14  1  0  0  0  0
 12 15  1  0  0  0  0
 14 32  1  0  0  0  0
 15 16  1  0  0  0  0
 16 17  2  0  0  0  0
 16 18  1  0  0  0  0
 17 19  1  0  0  0  0
 17 34  1  0  0  0  0
 18 20  2  0  0  0  0
 18 35  1  0  0  0  0
 19 21  2  0  0  0  0
 19 36  1  0  0  0  0
 20 21  1  0  0  0  0
 20 37  1  0  0  0  0
 21 38  1  0  0  0  0
M  END
> <PUBCHEM_COMPOUND_CID>
16760391

> <PUBCHEM_COMPOUND_CANONICALIZED>
1

> <PUBCHEM_CACTVS_COMPLEXITY>
348

> <PUBCHEM_CACTVS_HBOND_ACCEPTOR>
4

> <PUBCHEM_CACTVS_HBOND_DONOR>
1

> <PUBCHEM_CACTVS_ROTATABLE_BOND>
3

> <PUBCHEM_CACTVS_SUBSKEYS>
AAADceB6MAAAAAAAAAAAAAAAAAAAAAAAAAA8YIAAAAAAAAABQAAAHgAACAAADAzhmAYwxoMABgCIAqRSQACCAAAlIgAIiAEObMgKJjbClZOHcUhm4BnY2YeY2eOeCAAAAgAIAAAQAAAEABAAAAAAAAAAAA==

> <PUBCHEM_IUPAC_OPENEYE_NAME>
(2-hydroxy-4-morpholino-phenyl)-phenyl-methanone

> <PUBCHEM_IUPAC_CAS_NAME>
[2-hydroxy-4-(4-morpholinyl)phenyl]-phenylmethanone

> <PUBCHEM_IUPAC_NAME>
(2-hydroxy-4-morpholin-4-ylphenyl)-phenylmethanone

> <PUBCHEM_IUPAC_SYSTEMATIC_NAME>
(4-morpholin-4-yl-2-oxidanyl-phenyl)-phenyl-methanone

> <PUBCHEM_IUPAC_TRADITIONAL_NAME>
(2-hydroxy-4-morpholino-phenyl)-phenyl-methanone

> <PUBCHEM_IUPAC_INCHI>
InChI=1S/C17H17NO3/c19-16-12-14(18-8-10-21-11-9-18)6-7-15(16)17(20)13-4-2-1-3-5-13/h1-7,12,19H,8-11H2

> <PUBCHEM_IUPAC_INCHIKEY>
FALILNHGILFDLC-UHFFFAOYSA-N

> <PUBCHEM_XLOGP3_AA>
3.2

> <PUBCHEM_EXACT_MASS>
283.121

> <PUBCHEM_MOLECULAR_FORMULA>
C17H17NO3

> <PUBCHEM_MOLECULAR_WEIGHT>
283.327

> <PUBCHEM_OPENEYE_CAN_SMILES>
C1COCCN1C2=CC(=C(C=C2)C(=O)C3=CC=CC=C3)O

> <PUBCHEM_OPENEYE_ISO_SMILES>
C1COCCN1C2=CC(=C(C=C2)C(=O)C3=CC=CC=C3)O

> <PUBCHEM_CACTVS_TPSA>
49.8

> <PUBCHEM_MONOISOTOPIC_WEIGHT>
283.121

> <PUBCHEM_TOTAL_CHARGE>
0

> <PUBCHEM_HEAVY_ATOM_COUNT>
21

> <PUBCHEM_ATOM_DEF_STEREO_COUNT>
0

> <PUBCHEM_ATOM_UDEF_STEREO_COUNT>
0

> <PUBCHEM_BOND_DEF_STEREO_COUNT>
0

> <PUBCHEM_BOND_UDEF_STEREO_COUNT>
0

> <PUBCHEM_ISOTOPIC_ATOM_COUNT>
0

> <PUBCHEM_COMPONENT_COUNT>
1

> <PUBCHEM_CACTVS_TAUTO_COUNT>
5

> <PUBCHEM_COORDINATE_TYPE>
1
5
255

> <PUBCHEM_BONDANNOTATIONS>
10  13  8
11  14  8
12  13  8
12  14  8
16  17  8
16  18  8
17  19  8
18  20  8
19  21  8
20  21  8
9  10  8
9  11  8

$$$$
65399
  -OEChem-11021605012D

 39 42  0     1  0  0  0  0  0999 V2000
    4.5408    1.0008    0.0000 O   0  0  0  0  0  0  0  0  0  0  0  0
    6.8730    2.1218    0.0000 O   0  0  0  0  0  0  0  0  0  0  0  0
    5.1935    3.5048    0.0000 O   0  0  0  0  0  0  0  0  0  0  0  0
    2.5770    1.7119    0.0000 O   0  0  0  0  0  0  0  0  0  0  0  0
    6.0767    0.0972    0.0000 N   0  0  0  0  0  0  0  0  0  0  0  0
    4.7694   -1.3259    0.0000 N   0  0  0  0  0  0  0  0  0  0  0  0
    7.4354   -2.8467    0.0000 N   0  0  0  0  0  0  0  0  0  0  0  0
    8.3014   -2.3467    0.0000 N   0  0  0  0  0  0  0  0  0  0  0  0
    5.6754   -2.8814    0.0000 N   0  0  0  0  0  0  0  0  0  0  0  0
    9.1675   -0.8467    0.0000 N   0  0  0  0  0  0  0  0  0  0  0  0
    5.5389    0.9403    0.0000 C   0  0  1  0  0  0  0  0  0  0  0  0
    5.9049    1.8709    0.0000 C   0  0  1  0  0  0  0  0  0  0  0  0
    5.1330    2.5066    0.0000 C   0  0  1  0  0  0  0  0  0  0  0  0
    4.2899    1.9688    0.0000 C   0  0  1  0  0  0  0  0  0  0  0  0
    5.6754   -0.8120    0.0000 C   0  0  0  0  0  0  0  0  0  0  0  0
    3.3593    2.3348    0.0000 C   0  0  0  0  0  0  0  0  0  0  0  0
    7.0703    0.0776    0.0000 C   0  0  0  0  0  0  0  0  0  0  0  0
    6.5694   -1.3467    0.0000 C   0  0  0  0  0  0  0  0  0  0  0  0
    7.4354   -0.8467    0.0000 C   0  0  0  0  0  0  0  0  0  0  0  0
    6.5694   -2.3467    0.0000 C   0  0  0  0  0  0  0  0  0  0  0  0
    8.3014   -1.3467    0.0000 C   0  0  0  0  0  0  0  0  0  0  0  0
    4.7694   -2.3675    0.0000 C   0  0  0  0  0  0  0  0  0  0  0  0
    7.4354   -3.8467    0.0000 C   0  0  0  0  0  0  0  0  0  0  0  0
    5.2245    0.4059    0.0000 H   0  0  0  0  0  0  0  0  0  0  0  0
    6.3160    1.4068    0.0000 H   0  0  0  0  0  0  0  0  0  0  0  0
    5.7014    2.7541    0.0000 H   0  0  0  0  0  0  0  0  0  0  0  0
    3.8257    1.5578    0.0000 H   0  0  0  0  0  0  0  0  0  0  0  0
    3.6829    2.8637    0.0000 H   0  0  0  0  0  0  0  0  0  0  0  0
    2.8947    2.7454    0.0000 H   0  0  0  0  0  0  0  0  0  0  0  0
    7.4240    0.5868    0.0000 H   0  0  0  0  0  0  0  0  0  0  0  0
    7.0383    2.7194    0.0000 H   0  0  0  0  0  0  0  0  0  0  0  0
    4.6763    3.8467    0.0000 H   0  0  0  0  0  0  0  0  0  0  0  0
    2.0000    1.9388    0.0000 H   0  0  0  0  0  0  0  0  0  0  0  0
    4.2336   -2.6796    0.0000 H   0  0  0  0  0  0  0  0  0  0  0  0
    6.8154   -3.8467    0.0000 H   0  0  0  0  0  0  0  0  0  0  0  0
    7.4354   -4.4667    0.0000 H   0  0  0  0  0  0  0  0  0  0  0  0
    8.0554   -3.8467    0.0000 H   0  0  0  0  0  0  0  0  0  0  0  0
    9.7044   -1.1567    0.0000 H   0  0  0  0  0  0  0  0  0  0  0  0
    9.1675   -0.2267    0.0000 H   0  0  0  0  0  0  0  0  0  0  0  0
  1 11  1  0  0  0  0
  1 14  1  0  0  0  0
 12  2  1  1  0  0  0
  2 31  1  0  0  0  0
 13  3  1  1  0  0  0
  3 32  1  0  0  0  0
  4 16  1  0  0  0  0
  4 33  1  0  0  0  0
 11  5  1  6  0  0  0
  5 15  1  0  0  0  0
  5 17  1  0  0  0  0
  6 15  1  0  0  0  0
  6 22  2  0  0  0  0
  7  8  1  0  0  0  0
  7 20  1  0  0  0  0
  7 23  1  0  0  0  0
  8 21  2  0  0  0  0
  9 20  2  0  0  0  0
  9 22  1  0  0  0  0
 10 21  1  0  0  0  0
 10 38  1  0  0  0  0
 10 39  1  0  0  0  0
 11 12  1  0  0  0  0
 11 24  1  0  0  0  0
 12 13  1  0  0  0  0
 12 25  1  0  0  0  0
 13 14  1  0  0  0  0
 13 26  1  0  0  0  0
 14 16  1  6  0  0  0
 14 27  1  0  0  0  0
 15 18  2  0  0  0  0
 16 28  1  0  0  0  0
 16 29  1  0  0  0  0
 17 19  2  0  0  0  0
 17 30  1  0  0  0  0
 18 19  1  0  0  0  0
 18 20  1  0  0  0  0
 19 21  1  0  0  0  0
 22 34  1  0  0  0  0
 23 35  1  0  0  0  0
 23 36  1  0  0  0  0
 23 37  1  0  0  0  0
M  END
> <PUBCHEM_COMPOUND_CID>
65399

> <PUBCHEM_COMPOUND_CANONICALIZED>
1

> <PUBCHEM_CACTVS_COMPLEXITY>
507

> <PUBCHEM_CACTVS_HBOND_ACCEPTOR>
8

> <PUBCHEM_CACTVS_HBOND_DONOR>
4

> <PUBCHEM_CACTVS_ROTATABLE_BOND>
2

> <PUBCHEM_CACTVS_SUBSKEYS>
AAADceBzuAAAAAAAAAAAAAAAAAAAAWJAAAAsQAAAAAAAAFiB+AAAHgAYCAAADBThmwYvsN9MFgCgAhJnZACShCkxAKAV2CAoRJiLOMJAyMEORAhPCALTQCDwMAIIgAAAAAAAAAAAAAAAAAAAAAAAAAAAAA==

> <PUBCHEM_IUPAC_INCHI>
InChI=1S/C13H16N6O4/c1-18-11-7-5(10(14)17-18)2-19(12(7)16-4-15-11)13-9(22)8(21)6(3-20)23-13/h2,4,6,8-9,13,20-22H,3H2,1H3,(H2,14,17)/t6-,8-,9-,13-/m1/s1

> <PUBCHEM_IUPAC_INCHIKEY>
HOGVTUZUJGHKPL-HTVVRFAVSA-N

> <PUBCHEM_XLOGP3_AA>
-1.6

> <PUBCHEM_EXACT_MASS>
320.123

> <PUBCHEM_MOLECULAR_FORMULA>
C13H16N6O4

> <PUBCHEM_MOLECULAR_WEIGHT>
320.309

> <PUBCHEM_OPENEYE_CAN_SMILES>
CN1C2=NC=NC3=C2C(=CN3C4C(C(C(O4)CO)O)O)C(=N1)N

> <PUBCHEM_OPENEYE_ISO_SMILES>
CN1C2=NC=NC3=C2C(=CN3[C@H]4[C@@H]([C@@H]([C@H](O4)CO)O)O)C(=N1)N

> <PUBCHEM_CACTVS_TPSA>
142

> <PUBCHEM_MONOISOTOPIC_WEIGHT>
320.123

> <PUBCHEM_TOTAL_CHARGE>
0

> <PUBCHEM_HEAVY_ATOM_COUNT>
23

> <PUBCHEM_ATOM_DEF_STEREO_COUNT>
4

> <PUBCHEM_ATOM_UDEF_STEREO_COUNT>
0

> <PUBCHEM_BOND_DEF_STEREO_COUNT>
0

> <PUBCHEM_BOND_UDEF_STEREO_COUNT>
0

> <PUBCHEM_ISOTOPIC_ATOM_COUNT>
0

> <PUBCHEM_COMPONENT_COUNT>
1

> <PUBCHEM_CACTVS_TAUTO_COUNT>
2

> <PUBCHEM_COORDINATE_TYPE>
1
5
255

> <PUBCHEM_BONDANNOTATIONS>
14  16  6
15  18  8
17  19  8
18  19  8
18  20  8
12  2  5
13  3  5
11  5  6
5  15  8
5  17  8
6  15  8
6  22  8
9  20  8
9  22  8

$$$$
5330812
  -OEChem-11021605012D

 41 43  0     0  0  0  0  0  0999 V2000
    5.8076    4.4278    0.0000 S   0  0  0  0  0  0  0  0  0  0  0  0
    2.4577   -2.2927    0.0000 S   0  0  0  0  0  0  0  0  0  0  0  0
    2.0510   -3.2062    0.0000 F   0  0  0  0  0  0  0  0  0  0  0  0
    5.2156   -4.6152    0.0000 F   0  0  0  0  0  0  0  0  0  0  0  0
    6.8076    4.4278    0.0000 O   0  0  0  0  0  0  0  0  0  0  0  0
    4.8076    4.4278    0.0000 O   0  0  0  0  0  0  0  0  0  0  0  0
    5.8076    0.4278    0.0000 N   0  0  0  0  0  0  0  0  0  0  0  0
    3.8590   -1.2746    0.0000 N   0  0  0  0  0  0  0  0  0  0  0  0
    4.8371   -1.0667    0.0000 N   0  0  0  0  0  0  0  0  0  0  0  0
    4.0400   -2.9972    0.0000 N   0  0  0  0  0  0  0  0  0  0  0  0
    4.0281    0.3346    0.0000 N   0  0  0  0  0  0  0  0  0  0  0  0
    5.8076    5.4278    0.0000 N   0  0  0  0  0  0  0  0  0  0  0  0
    2.3644   -0.3041    0.0000 N   0  0  0  0  0  0  0  0  0  0  0  0
    5.8076    1.4278    0.0000 C   0  0  0  0  0  0  0  0  0  0  0  0
    5.8076    3.4278    0.0000 C   0  0  0  0  0  0  0  0  0  0  0  0
    6.6737    1.9278    0.0000 C   0  0  0  0  0  0  0  0  0  0  0  0
    4.9416    1.9278    0.0000 C   0  0  0  0  0  0  0  0  0  0  0  0
    6.6737    2.9278    0.0000 C   0  0  0  0  0  0  0  0  0  0  0  0
    4.9416    2.9278    0.0000 C   0  0  0  0  0  0  0  0  0  0  0  0
    4.9416   -0.0722    0.0000 C   0  0  0  0  0  0  0  0  0  0  0  0
    3.3590   -0.4086    0.0000 C   0  0  0  0  0  0  0  0  0  0  0  0
    3.4522   -2.1882    0.0000 C   0  0  0  0  0  0  0  0  0  0  0  0
    3.6333   -3.9107    0.0000 C   0  0  0  0  0  0  0  0  0  0  0  0
    2.6387   -4.0152    0.0000 C   0  0  0  0  0  0  0  0  0  0  0  0
    4.2210   -4.7197    0.0000 C   0  0  0  0  0  0  0  0  0  0  0  0
    2.2320   -4.9288    0.0000 C   0  0  0  0  0  0  0  0  0  0  0  0
    3.8143   -5.6333    0.0000 C   0  0  0  0  0  0  0  0  0  0  0  0
    2.8198   -5.7378    0.0000 C   0  0  0  0  0  0  0  0  0  0  0  0
    7.2106    1.6178    0.0000 H   0  0  0  0  0  0  0  0  0  0  0  0
    4.4047    1.6178    0.0000 H   0  0  0  0  0  0  0  0  0  0  0  0
    7.2106    3.2378    0.0000 H   0  0  0  0  0  0  0  0  0  0  0  0
    4.4047    3.2378    0.0000 H   0  0  0  0  0  0  0  0  0  0  0  0
    6.3446    0.1178    0.0000 H   0  0  0  0  0  0  0  0  0  0  0  0
    4.6566   -2.9324    0.0000 H   0  0  0  0  0  0  0  0  0  0  0  0
    6.3446    5.7378    0.0000 H   0  0  0  0  0  0  0  0  0  0  0  0
    5.2707    5.7378    0.0000 H   0  0  0  0  0  0  0  0  0  0  0  0
    1.6154   -4.9936    0.0000 H   0  0  0  0  0  0  0  0  0  0  0  0
    4.1787   -6.1349    0.0000 H   0  0  0  0  0  0  0  0  0  0  0  0
    2.5676   -6.3042    0.0000 H   0  0  0  0  0  0  0  0  0  0  0  0
    2.1122    0.2623    0.0000 H   0  0  0  0  0  0  0  0  0  0  0  0
    2.0000   -0.8057    0.0000 H   0  0  0  0  0  0  0  0  0  0  0  0
  1  5  2  0  0  0  0
  1  6  2  0  0  0  0
  1 12  1  0  0  0  0
  1 15  1  0  0  0  0
  2 22  2  0  0  0  0
  3 24  1  0  0  0  0
  4 25  1  0  0  0  0
  7 14  1  0  0  0  0
  7 20  1  0  0  0  0
  7 33  1  0  0  0  0
  8  9  1  0  0  0  0
  8 21  1  0  0  0  0
  8 22  1  0  0  0  0
  9 20  2  0  0  0  0
 10 22  1  0  0  0  0
 10 23  1  0  0  0  0
 10 34  1  0  0  0  0
 11 20  1  0  0  0  0
 11 21  2  0  0  0  0
 12 35  1  0  0  0  0
 12 36  1  0  0  0  0
 13 21  1  0  0  0  0
 13 40  1  0  0  0  0
 13 41  1  0  0  0  0
 14 16  2  0  0  0  0
 14 17  1  0  0  0  0
 15 18  2  0  0  0  0
 15 19  1  0  0  0  0
 16 18  1  0  0  0  0
 16 29  1  0  0  0  0
 17 19  2  0  0  0  0
 17 30  1  0  0  0  0
 18 31  1  0  0  0  0
 19 32  1  0  0  0  0
 23 24  2  0  0  0  0
 23 25  1  0  0  0  0
 24 26  1  0  0  0  0
 25 27  2  0  0  0  0
 26 28  2  0  0  0  0
 26 37  1  0  0  0  0
 27 28  1  0  0  0  0
 27 38  1  0  0  0  0
 28 39  1  0  0  0  0
M  END
> <PUBCHEM_COMPOUND_CID>
5330812

> <PUBCHEM_COMPOUND_CANONICALIZED>
1

> <PUBCHEM_CACTVS_COMPLEXITY>
647

> <PUBCHEM_CACTVS_HBOND_ACCEPTOR>
10

> <PUBCHEM_CACTVS_HBOND_DONOR>
4

> <PUBCHEM_CACTVS_ROTATABLE_BOND>
4

> <PUBCHEM_CACTVS_SUBSKEYS>
AAADccBzsYBgAAAAAAAAAAAAAAAAAWAAAAAwYAAAAAAAAAAB0AAAHQQYQAAACAiBUAgx0YbIEAKmACRCZHDSABshAokNiBgAZIiIKCLAmZGEIAh4kAJIyCcQAAAAAAQAAAAAAAAACAAAAAAAAAAAAAAAAA==

> <PUBCHEM_IUPAC_OPENEYE_NAME>
5-amino-N-(2,6-difluorophenyl)-3-(4-sulfamoylanilino)-1,2,4-triazole-1-carbothioamide

> <PUBCHEM_IUPAC_CAS_NAME>
5-amino-N-(2,6-difluorophenyl)-3-(4-sulfamoylanilino)-1,2,4-triazole-1-carbothioamide

> <PUBCHEM_IUPAC_NAME>
5-amino-N-(2,6-difluorophenyl)-3-(4-sulfamoylanilino)-1,2,4-triazole-1-carbothioamide

> <PUBCHEM_IUPAC_SYSTEMATIC_NAME>
5-azanyl-N-[2,6-bis(fluoranyl)phenyl]-3-[(4-sulfamoylphenyl)amino]-1,2,4-triazole-1-carbothioamide

> <PUBCHEM_IUPAC_TRADITIONAL_NAME>
5-amino-N-(2,6-difluorophenyl)-3-(4-sulfamoylanilino)-1,2,4-triazole-1-carbothioamide

> <PUBCHEM_IUPAC_INCHI>
InChI=1S/C15H13F2N7O2S2/c16-10-2-1-3-11(17)12(10)21-15(27)24-13(18)22-14(23-24)20-8-4-6-9(7-5-8)28(19,25)26/h1-7H,(H,21,27)(H2,19,25,26)(H3,18,20,22,23)

> <PUBCHEM_IUPAC_INCHIKEY>
ARIOBGGRZJITQX-UHFFFAOYSA-N

> <PUBCHEM_XLOGP3_AA>
2.2

> <PUBCHEM_EXACT_MASS>
425.054

> <PUBCHEM_MOLECULAR_FORMULA>
C15H13F2N7O2S2

> <PUBCHEM_MOLECULAR_WEIGHT>
425.433

> <PUBCHEM_OPENEYE_CAN_SMILES>
C1=CC(=C(C(=C1)F)NC(=S)N2C(=NC(=N2)NC3=CC=C(C=C3)S(=O)(=O)N)N)F

> <PUBCHEM_OPENEYE_ISO_SMILES>
C1=CC(=C(C(=C1)F)NC(=S)N2C(=NC(=N2)NC3=CC=C(C=C3)S(=O)(=O)N)N)F

> <PUBCHEM_CACTVS_TPSA>
181

> <PUBCHEM_MONOISOTOPIC_WEIGHT>
425.054

> <PUBCHEM_TOTAL_CHARGE>
0

> <PUBCHEM_HEAVY_ATOM_COUNT>
28

> <PUBCHEM_ATOM_DEF_STEREO_COUNT>
0

> <PUBCHEM_ATOM_UDEF_STEREO_COUNT>
0

> <PUBCHEM_BOND_DEF_STEREO_COUNT>
0

> <PUBCHEM_BOND_UDEF_STEREO_COUNT>
0

> <PUBCHEM_ISOTOPIC_ATOM_COUNT>
0

> <PUBCHEM_COMPONENT_COUNT>
1

> <PUBCHEM_CACTVS_TAUTO_COUNT>
10

> <PUBCHEM_COORDINATE_TYPE>
1
5
255

> <PUBCHEM_BONDANNOTATIONS>
11  20  8
11  21  8
14  16  8
14  17  8
15  18  8
15  19  8
16  18  8
17  19  8
23  24  8
23  25  8
24  26  8
25  27  8
26  28  8
27  28  8
8  21  8
8  9  8
9  20  8

$$$$
6610278
  -OEChem-11021605012D

 50 53  0     0  0  0  0  0  0999 V2000
    2.8660    1.5472    0.0000 O   0  0  0  0  0  0  0  0  0  0  0  0
    2.8660    3.5472    0.0000 O   0  0  0  0  0  0  0  0  0  0  0  0
    8.9039   -3.0172    0.0000 O   0  0  0  0  0  0  0  0  0  0  0  0
    6.3465    0.5126    0.0000 N   0  0  0  0  0  0  0  0  0  0  0  0
    7.2641    2.0264    0.0000 N   0  0  0  0  0  0  0  0  0  0  0  0
    6.3580    3.5818    0.0000 N   0  0  0  0  0  0  0  0  0  0  0  0
    9.7872   -1.5273    0.0000 N   0  0  0  0  0  0  0  0  0  0  0  0
    5.4641    2.0472    0.0000 C   0  0  0  0  0  0  0  0  0  0  0  0
    6.3580    1.5125    0.0000 C   0  0  0  0  0  0  0  0  0  0  0  0
    5.4641    3.0472    0.0000 C   0  0  0  0  0  0  0  0  0  0  0  0
    4.5981    1.5472    0.0000 C   0  0  0  0  0  0  0  0  0  0  0  0
    7.2067    0.0026    0.0000 C   0  0  0  0  0  0  0  0  0  0  0  0
    3.7320    2.0472    0.0000 C   0  0  0  0  0  0  0  0  0  0  0  0
    4.5981    3.5472    0.0000 C   0  0  0  0  0  0  0  0  0  0  0  0
    3.7320    3.0472    0.0000 C   0  0  0  0  0  0  0  0  0  0  0  0
    8.9270   -1.0174    0.0000 C   0  0  0  0  0  0  0  0  0  0  0  0
    7.1951   -0.9973    0.0000 C   0  0  0  0  0  0  0  0  0  0  0  0
    8.0784    0.4926    0.0000 C   0  0  0  0  0  0  0  0  0  0  0  0
    8.0553   -1.5073    0.0000 C   0  0  0  0  0  0  0  0  0  0  0  0
    8.9386   -0.0174    0.0000 C   0  0  0  0  0  0  0  0  0  0  0  0
    7.2641    3.0680    0.0000 C   0  0  0  0  0  0  0  0  0  0  0  0
    9.7757   -2.5273    0.0000 C   0  0  0  0  0  0  0  0  0  0  0  0
   10.6358   -3.0373    0.0000 C   0  0  0  0  0  0  0  0  0  0  0  0
   10.6243   -4.0372    0.0000 C   0  0  0  0  0  0  0  0  0  0  0  0
   11.5076   -2.5473    0.0000 C   0  0  0  0  0  0  0  0  0  0  0  0
    2.0000    2.0472    0.0000 C   0  0  0  0  0  0  0  0  0  0  0  0
    2.8660    4.5472    0.0000 C   0  0  0  0  0  0  0  0  0  0  0  0
   11.4845   -4.5472    0.0000 C   0  0  0  0  0  0  0  0  0  0  0  0
   12.3678   -3.0573    0.0000 C   0  0  0  0  0  0  0  0  0  0  0  0
   12.3562   -4.0572    0.0000 C   0  0  0  0  0  0  0  0  0  0  0  0
    4.5981    0.9272    0.0000 H   0  0  0  0  0  0  0  0  0  0  0  0
    5.8060    0.2088    0.0000 H   0  0  0  0  0  0  0  0  0  0  0  0
    4.5981    4.1672    0.0000 H   0  0  0  0  0  0  0  0  0  0  0  0
    6.6546   -1.3011    0.0000 H   0  0  0  0  0  0  0  0  0  0  0  0
    8.0856    1.1125    0.0000 H   0  0  0  0  0  0  0  0  0  0  0  0
    8.0481   -2.1273    0.0000 H   0  0  0  0  0  0  0  0  0  0  0  0
    9.4791    0.2863    0.0000 H   0  0  0  0  0  0  0  0  0  0  0  0
    7.7998    3.3801    0.0000 H   0  0  0  0  0  0  0  0  0  0  0  0
   10.3277   -1.2236    0.0000 H   0  0  0  0  0  0  0  0  0  0  0  0
   10.0838   -4.3410    0.0000 H   0  0  0  0  0  0  0  0  0  0  0  0
   11.5148   -1.9274    0.0000 H   0  0  0  0  0  0  0  0  0  0  0  0
    2.3100    2.5841    0.0000 H   0  0  0  0  0  0  0  0  0  0  0  0
    1.4631    2.3572    0.0000 H   0  0  0  0  0  0  0  0  0  0  0  0
    1.6900    1.5102    0.0000 H   0  0  0  0  0  0  0  0  0  0  0  0
    3.4860    4.5472    0.0000 H   0  0  0  0  0  0  0  0  0  0  0  0
    2.8660    5.1672    0.0000 H   0  0  0  0  0  0  0  0  0  0  0  0
    2.2460    4.5472    0.0000 H   0  0  0  0  0  0  0  0  0  0  0  0
   11.4773   -5.1671    0.0000 H   0  0  0  0  0  0  0  0  0  0  0  0
   12.9083   -2.7535    0.0000 H   0  0  0  0  0  0  0  0  0  0  0  0
   12.8895   -4.3734    0.0000 H   0  0  0  0  0  0  0  0  0  0  0  0
  1 13  1  0  0  0  0
  1 26  1  0  0  0  0
  2 15  1  0  0  0  0
  2 27  1  0  0  0  0
  3 22  2  0  0  0  0
  4  9  1  0  0  0  0
  4 12  1  0  0  0  0
  4 32  1  0  0  0  0
  5  9  2  0  0  0  0
  5 21  1  0  0  0  0
  6 10  1  0  0  0  0
  6 21  2  0  0  0  0
  7 16  1  0  0  0  0
  7 22  1  0  0  0  0
  7 39  1  0  0  0  0
  8  9  1  0  0  0  0
  8 10  1  0  0  0  0
  8 11  2  0  0  0  0
 10 14  2  0  0  0  0
 11 13  1  0  0  0  0
 11 31  1  0  0  0  0
 12 17  2  0  0  0  0
 12 18  1  0  0  0  0
 13 15  2  0  0  0  0
 14 15  1  0  0  0  0
 14 33  1  0  0  0  0
 16 19  2  0  0  0  0
 16 20  1  0  0  0  0
 17 19  1  0  0  0  0
 17 34  1  0  0  0  0
 18 20  2  0  0  0  0
 18 35  1  0  0  0  0
 19 36  1  0  0  0  0
 20 37  1  0  0  0  0
 21 38  1  0  0  0  0
 22 23  1  0  0  0  0
 23 24  2  0  0  0  0
 23 25  1  0  0  0  0
 24 28  1  0  0  0  0
 24 40  1  0  0  0  0
 25 29  2  0  0  0  0
 25 41  1  0  0  0  0
 26 42  1  0  0  0  0
 26 43  1  0  0  0  0
 26 44  1  0  0  0  0
 27 45  1  0  0  0  0
 27 46  1  0  0  0  0
 27 47  1  0  0  0  0
 28 30  2  0  0  0  0
 28 48  1  0  0  0  0
 29 30  1  0  0  0  0
 29 49  1  0  0  0  0
 30 50  1  0  0  0  0
M  END
> <PUBCHEM_COMPOUND_CID>
6610278

> <PUBCHEM_COMPOUND_CANONICALIZED>
1

> <PUBCHEM_CACTVS_COMPLEXITY>
549

> <PUBCHEM_CACTVS_HBOND_ACCEPTOR>
6

> <PUBCHEM_CACTVS_HBOND_DONOR>
2

> <PUBCHEM_CACTVS_ROTATABLE_BOND>
6

> <PUBCHEM_CACTVS_SUBSKEYS>
AAADceB7sAAAAAAAAAAAAAAAAAAAAAAAAAA8YMEAAAAAAACx9AAAHgAQAAAADAyBngY39vbIFACoAydzdACCiCk1IqAJ2CE+7NiNLvLE/duENSpu1BvK6ae42BOOIECBAgACQABAgQIEAASAAAAAAAAAAA==

> <PUBCHEM_IUPAC_OPENEYE_NAME>
N-[4-[(6,7-dimethoxyquinazolin-4-yl)amino]phenyl]benzamide

> <PUBCHEM_IUPAC_CAS_NAME>
N-[4-[(6,7-dimethoxy-4-quinazolinyl)amino]phenyl]benzamide

> <PUBCHEM_IUPAC_NAME>
N-[4-[(6,7-dimethoxyquinazolin-4-yl)amino]phenyl]benzamide

> <PUBCHEM_IUPAC_SYSTEMATIC_NAME>
N-[4-[(6,7-dimethoxyquinazolin-4-yl)amino]phenyl]benzamide

> <PUBCHEM_IUPAC_TRADITIONAL_NAME>
N-[4-[(6,7-dimethoxyquinazolin-4-yl)amino]phenyl]benzamide

> <PUBCHEM_IUPAC_INCHI>
InChI=1S/C23H20N4O3/c1-29-20-12-18-19(13-21(20)30-2)24-14-25-22(18)26-16-8-10-17(11-9-16)27-23(28)15-6-4-3-5-7-15/h3-14H,1-2H3,(H,27,28)(H,24,25,26)

> <PUBCHEM_IUPAC_INCHIKEY>
IMYVCWQAHSYYOO-UHFFFAOYSA-N

> <PUBCHEM_XLOGP3_AA>
4.2

> <PUBCHEM_EXACT_MASS>
400.154

> <PUBCHEM_MOLECULAR_FORMULA>
C23H20N4O3

> <PUBCHEM_MOLECULAR_WEIGHT>
400.438

> <PUBCHEM_OPENEYE_CAN_SMILES>
COC1=C(C=C2C(=C1)C(=NC=N2)NC3=CC=C(C=C3)NC(=O)C4=CC=CC=C4)OC

> <PUBCHEM_OPENEYE_ISO_SMILES>
COC1=C(C=C2C(=C1)C(=NC=N2)NC3=CC=C(C=C3)NC(=O)C4=CC=CC=C4)OC

> <PUBCHEM_CACTVS_TPSA>
85.4

> <PUBCHEM_MONOISOTOPIC_WEIGHT>
400.154

> <PUBCHEM_TOTAL_CHARGE>
0

> <PUBCHEM_HEAVY_ATOM_COUNT>
30

> <PUBCHEM_ATOM_DEF_STEREO_COUNT>
0

> <PUBCHEM_ATOM_UDEF_STEREO_COUNT>
0

> <PUBCHEM_BOND_DEF_STEREO_COUNT>
0

> <PUBCHEM_BOND_UDEF_STEREO_COUNT>
0

> <PUBCHEM_ISOTOPIC_ATOM_COUNT>
0

> <PUBCHEM_COMPONENT_COUNT>
1

> <PUBCHEM_CACTVS_TAUTO_COUNT>
6

> <PUBCHEM_COORDINATE_TYPE>
1
5
255

> <PUBCHEM_BONDANNOTATIONS>
10  14  8
11  13  8
12  17  8
12  18  8
13  15  8
14  15  8
16  19  8
16  20  8
17  19  8
18  20  8
23  24  8
23  25  8
24  28  8
25  29  8
28  30  8
29  30  8
5  21  8
5  9  8
6  10  8
6  21  8
8  10  8
8  11  8
8  9  8

$$$$
3797
  -OEChem-11021605012D

 50 52  0     1  0  0  0  0  0999 V2000
    8.0622   -1.5173    0.0000 O   0  0  0  0  0  0  0  0  0  0  0  0
    5.4641   -0.0173    0.0000 N   0  0  3  0  0  0  0  0  0  0  0  0
    5.4641    0.9827    0.0000 C   0  0  0  0  0  0  0  0  0  0  0  0
    6.3301   -0.5173    0.0000 C   0  0  0  0  0  0  0  0  0  0  0  0
    4.5981   -0.5173    0.0000 C   0  0  0  0  0  0  0  0  0  0  0  0
    7.1962   -0.0173    0.0000 C   0  0  0  0  0  0  0  0  0  0  0  0
    6.3301    1.4827    0.0000 C   0  0  0  0  0  0  0  0  0  0  0  0
    4.5981    1.4827    0.0000 C   0  0  0  0  0  0  0  0  0  0  0  0
    3.7320   -0.0173    0.0000 C   0  0  0  0  0  0  0  0  0  0  0  0
    8.0622   -0.5173    0.0000 C   0  0  0  0  0  0  0  0  0  0  0  0
    8.9282   -0.0173    0.0000 C   0  0  0  0  0  0  0  0  0  0  0  0
    2.8660   -0.5173    0.0000 C   0  0  0  0  0  0  0  0  0  0  0  0
    3.7320    0.9827    0.0000 C   0  0  0  0  0  0  0  0  0  0  0  0
    9.7942   -0.5173    0.0000 C   0  0  0  0  0  0  0  0  0  0  0  0
   10.6603   -0.0173    0.0000 C   0  0  0  0  0  0  0  0  0  0  0  0
    8.9282    0.9827    0.0000 C   0  0  0  0  0  0  0  0  0  0  0  0
   10.6603    0.9827    0.0000 C   0  0  0  0  0  0  0  0  0  0  0  0
    9.7942    1.4827    0.0000 C   0  0  0  0  0  0  0  0  0  0  0  0
    2.0000   -0.0173    0.0000 C   0  0  0  0  0  0  0  0  0  0  0  0
    2.8660    1.4827    0.0000 C   0  0  0  0  0  0  0  0  0  0  0  0
    2.0000    0.9827    0.0000 C   0  0  0  0  0  0  0  0  0  0  0  0
   11.5542   -0.5520    0.0000 C   0  0  0  0  0  0  0  0  0  0  0  0
   11.5542    1.5173    0.0000 C   0  0  0  0  0  0  0  0  0  0  0  0
   12.4603   -0.0381    0.0000 C   0  0  0  0  0  0  0  0  0  0  0  0
   12.4603    1.0035    0.0000 C   0  0  0  0  0  0  0  0  0  0  0  0
    6.0010    0.6727    0.0000 H   0  0  0  0  0  0  0  0  0  0  0  0
    5.9316   -0.9923    0.0000 H   0  0  0  0  0  0  0  0  0  0  0  0
    6.7287   -0.9923    0.0000 H   0  0  0  0  0  0  0  0  0  0  0  0
    4.1996   -0.9923    0.0000 H   0  0  0  0  0  0  0  0  0  0  0  0
    4.9966   -0.9923    0.0000 H   0  0  0  0  0  0  0  0  0  0  0  0
    7.5947    0.4576    0.0000 H   0  0  0  0  0  0  0  0  0  0  0  0
    6.7976    0.4576    0.0000 H   0  0  0  0  0  0  0  0  0  0  0  0
    4.9081    2.0196    0.0000 H   0  0  0  0  0  0  0  0  0  0  0  0
    4.0611    1.7927    0.0000 H   0  0  0  0  0  0  0  0  0  0  0  0
    6.6401    0.9457    0.0000 H   0  0  0  0  0  0  0  0  0  0  0  0
    6.8671    1.7927    0.0000 H   0  0  0  0  0  0  0  0  0  0  0  0
    6.0201    2.0196    0.0000 H   0  0  0  0  0  0  0  0  0  0  0  0
    4.2881    0.9457    0.0000 H   0  0  0  0  0  0  0  0  0  0  0  0
    2.8660   -1.1373    0.0000 H   0  0  0  0  0  0  0  0  0  0  0  0
    4.2690    1.2927    0.0000 H   0  0  0  0  0  0  0  0  0  0  0  0
    9.7942   -1.1373    0.0000 H   0  0  0  0  0  0  0  0  0  0  0  0
    8.3913    1.2927    0.0000 H   0  0  0  0  0  0  0  0  0  0  0  0
    9.7942    2.1027    0.0000 H   0  0  0  0  0  0  0  0  0  0  0  0
    1.4631   -0.3273    0.0000 H   0  0  0  0  0  0  0  0  0  0  0  0
    2.8660    2.1027    0.0000 H   0  0  0  0  0  0  0  0  0  0  0  0
    1.4631    1.2927    0.0000 H   0  0  0  0  0  0  0  0  0  0  0  0
   11.5470   -1.1720    0.0000 H   0  0  0  0  0  0  0  0  0  0  0  0
   11.5470    2.1373    0.0000 H   0  0  0  0  0  0  0  0  0  0  0  0
   12.9960   -0.3502    0.0000 H   0  0  0  0  0  0  0  0  0  0  0  0
   12.9960    1.3156    0.0000 H   0  0  0  0  0  0  0  0  0  0  0  0
  1 10  2  0  0  0  0
  2  3  1  0  0  0  0
  2  4  1  0  0  0  0
  2  5  1  0  0  0  0
  3  7  1  0  0  0  0
  3  8  1  0  0  0  0
  3 26  1  0  0  0  0
  4  6  1  0  0  0  0
  4 27  1  0  0  0  0
  4 28  1  0  0  0  0
  5  9  1  0  0  0  0
  5 29  1  0  0  0  0
  5 30  1  0  0  0  0
  6 10  1  0  0  0  0
  6 31  1  0  0  0  0
  6 32  1  0  0  0  0
  7 35  1  0  0  0  0
  7 36  1  0  0  0  0
  7 37  1  0  0  0  0
  8 33  1  0  0  0  0
  8 34  1  0  0  0  0
  8 38  1  0  0  0  0
  9 12  2  0  0  0  0
  9 13  1  0  0  0  0
 10 11  1  0  0  0  0
 11 14  2  0  0  0  0
 11 16  1  0  0  0  0
 12 19  1  0  0  0  0
 12 39  1  0  0  0  0
 13 20  2  0  0  0  0
 13 40  1  0  0  0  0
 14 15  1  0  0  0  0
 14 41  1  0  0  0  0
 15 17  1  0  0  0  0
 15 22  2  0  0  0  0
 16 18  2  0  0  0  0
 16 42  1  0  0  0  0
 17 18  1  0  0  0  0
 17 23  2  0  0  0  0
 18 43  1  0  0  0  0
 19 21  2  0  0  0  0
 19 44  1  0  0  0  0
 20 21  1  0  0  0  0
 20 45  1  0  0  0  0
 21 46  1  0  0  0  0
 22 24  1  0  0  0  0
 22 47  1  0  0  0  0
 23 25  1  0  0  0  0
 23 48  1  0  0  0  0
 24 25  2  0  0  0  0
 24 49  1  0  0  0  0
 25 50  1  0  0  0  0
M  END
> <PUBCHEM_COMPOUND_CID>
3797

> <PUBCHEM_COMPOUND_CANONICALIZED>
1

> <PUBCHEM_CACTVS_COMPLEXITY>
412

> <PUBCHEM_CACTVS_HBOND_ACCEPTOR>
2

> <PUBCHEM_CACTVS_HBOND_DONOR>
0

> <PUBCHEM_CACTVS_ROTATABLE_BOND>
7

> <PUBCHEM_CACTVS_SUBSKEYS>
AAADceB6IAAAAAAAAAAAAAAAAAAAAAAAAAAwYMAAAAAAAADBVAAAHgAAAAAADCzBmAQyAMMAAACIAqBSAACCAAAkAAAIiAEIBMgIIDqAlRGEIQhggACIiYcYiMCOwAACAAAQAACAAAQAACAAAAAAAAAAAA==

> <PUBCHEM_IUPAC_OPENEYE_NAME>
3-[benzyl(isopropyl)amino]-1-(2-naphthyl)propan-1-one

> <PUBCHEM_IUPAC_CAS_NAME>
1-(2-naphthalenyl)-3-[(phenylmethyl)-propan-2-ylamino]-1-propanone

> <PUBCHEM_IUPAC_NAME>
3-[benzyl(propan-2-yl)amino]-1-naphthalen-2-ylpropan-1-one

> <PUBCHEM_IUPAC_SYSTEMATIC_NAME>
1-naphthalen-2-yl-3-[(phenylmethyl)-propan-2-yl-amino]propan-1-one

> <PUBCHEM_IUPAC_TRADITIONAL_NAME>
3-[benzyl(isopropyl)amino]-1-(2-naphthyl)propan-1-one

> <PUBCHEM_IUPAC_INCHI>
InChI=1S/C23H25NO/c1-18(2)24(17-19-8-4-3-5-9-19)15-14-23(25)22-13-12-20-10-6-7-11-21(20)16-22/h3-13,16,18H,14-15,17H2,1-2H3

> <PUBCHEM_IUPAC_INCHIKEY>
JSASWRWALCMOQP-UHFFFAOYSA-N

> <PUBCHEM_XLOGP3_AA>
5.1

> <PUBCHEM_EXACT_MASS>
331.194

> <PUBCHEM_MOLECULAR_FORMULA>
C23H25NO

> <PUBCHEM_MOLECULAR_WEIGHT>
331.459

> <PUBCHEM_OPENEYE_CAN_SMILES>
CC(C)N(CCC(=O)C1=CC2=CC=CC=C2C=C1)CC3=CC=CC=C3

> <PUBCHEM_OPENEYE_ISO_SMILES>
CC(C)N(CCC(=O)C1=CC2=CC=CC=C2C=C1)CC3=CC=CC=C3

> <PUBCHEM_CACTVS_TPSA>
20.3

> <PUBCHEM_MONOISOTOPIC_WEIGHT>
331.194

> <PUBCHEM_TOTAL_CHARGE>
0

> <PUBCHEM_HEAVY_ATOM_COUNT>
25

> <PUBCHEM_ATOM_DEF_STEREO_COUNT>
0

> <PUBCHEM_ATOM_UDEF_STEREO_COUNT>
0

> <PUBCHEM_BOND_DEF_STEREO_COUNT>
0

> <PUBCHEM_BOND_UDEF_STEREO_COUNT>
0

> <PUBCHEM_ISOTOPIC_ATOM_COUNT>
0

> <PUBCHEM_COMPONENT_COUNT>
1

> <PUBCHEM_CACTVS_TAUTO_COUNT>
2

> <PUBCHEM_COORDINATE_TYPE>
1
5
255

> <PUBCHEM_BONDANNOTATIONS>
11  14  8
11  16  8
12  19  8
13  20  8
14  15  8
15  17  8
15  22  8
16  18  8
17  18  8
17  23  8
19  21  8
20  21  8
22  24  8
23  25  8
24  25  8
9  12  8
9  13  8

$$$$
2427
  -OEChem-11021605012D

 34 37  0     0  0  0  0  0  0999 V2000
    2.0000   -0.9250    0.0000 Br  0  0  0  0  0  0  0  0  0  0  0  0
    9.0245    1.9544    0.0000 N   0  0  0  0  0  0  0  0  0  0  0  0
    9.0245    0.3449    0.0000 N   0  0  0  0  0  0  0  0  0  0  0  0
    5.4639   -0.8850    0.0000 N   0  0  0  0  0  0  0  0  0  0  0  0
    5.4523    2.1843    0.0000 N   0  0  0  0  0  0  0  0  0  0  0  0
    4.5462    0.6288    0.0000 N   0  0  0  0  0  0  0  0  0  0  0  0
    8.0783    1.6496    0.0000 C   0  0  0  0  0  0  0  0  0  0  0  0
    6.3463    0.6496    0.0000 C   0  0  0  0  0  0  0  0  0  0  0  0
    8.0783    0.6496    0.0000 C   0  0  0  0  0  0  0  0  0  0  0  0
    6.3463    1.6496    0.0000 C   0  0  0  0  0  0  0  0  0  0  0  0
    7.2123    0.1496    0.0000 C   0  0  0  0  0  0  0  0  0  0  0  0
    7.2123    2.1496    0.0000 C   0  0  0  0  0  0  0  0  0  0  0  0
    5.4523    0.1150    0.0000 C   0  0  0  0  0  0  0  0  0  0  0  0
    9.6081    1.1496    0.0000 C   0  0  0  0  0  0  0  0  0  0  0  0
    9.3352    2.9049    0.0000 C   0  0  0  0  0  0  0  0  0  0  0  0
    4.6037   -1.3950    0.0000 C   0  0  0  0  0  0  0  0  0  0  0  0
    4.5462    1.6704    0.0000 C   0  0  0  0  0  0  0  0  0  0  0  0
    3.7319   -0.9050    0.0000 C   0  0  0  0  0  0  0  0  0  0  0  0
    4.6152   -2.3949    0.0000 C   0  0  0  0  0  0  0  0  0  0  0  0
    2.8718   -1.4150    0.0000 C   0  0  0  0  0  0  0  0  0  0  0  0
    3.7551   -2.9049    0.0000 C   0  0  0  0  0  0  0  0  0  0  0  0
    2.8833   -2.4149    0.0000 C   0  0  0  0  0  0  0  0  0  0  0  0
    7.2123   -0.4704    0.0000 H   0  0  0  0  0  0  0  0  0  0  0  0
    7.2123    2.7696    0.0000 H   0  0  0  0  0  0  0  0  0  0  0  0
   10.2281    1.1496    0.0000 H   0  0  0  0  0  0  0  0  0  0  0  0
    9.9245    2.7123    0.0000 H   0  0  0  0  0  0  0  0  0  0  0  0
    9.5278    3.4942    0.0000 H   0  0  0  0  0  0  0  0  0  0  0  0
    8.7459    3.0975    0.0000 H   0  0  0  0  0  0  0  0  0  0  0  0
    6.0043   -1.1888    0.0000 H   0  0  0  0  0  0  0  0  0  0  0  0
    4.0105    1.9825    0.0000 H   0  0  0  0  0  0  0  0  0  0  0  0
    3.7248   -0.2850    0.0000 H   0  0  0  0  0  0  0  0  0  0  0  0
    5.1557   -2.6987    0.0000 H   0  0  0  0  0  0  0  0  0  0  0  0
    3.7622   -3.5248    0.0000 H   0  0  0  0  0  0  0  0  0  0  0  0
    2.3500   -2.7311    0.0000 H   0  0  0  0  0  0  0  0  0  0  0  0
  1 20  1  0  0  0  0
  2  7  1  0  0  0  0
  2 14  1  0  0  0  0
  2 15  1  0  0  0  0
  3  9  1  0  0  0  0
  3 14  2  0  0  0  0
  4 13  1  0  0  0  0
  4 16  1  0  0  0  0
  4 29  1  0  0  0  0
  5 10  1  0  0  0  0
  5 17  2  0  0  0  0
  6 13  2  0  0  0  0
  6 17  1  0  0  0  0
  7  9  2  0  0  0  0
  7 12  1  0  0  0  0
  8 10  1  0  0  0  0
  8 11  2  0  0  0  0
  8 13  1  0  0  0  0
  9 11  1  0  0  0  0
 10 12  2  0  0  0  0
 11 23  1  0  0  0  0
 12 24  1  0  0  0  0
 14 25  1  0  0  0  0
 15 26  1  0  0  0  0
 15 27  1  0  0  0  0
 15 28  1  0  0  0  0
 16 18  2  0  0  0  0
 16 19  1  0  0  0  0
 17 30  1  0  0  0  0
 18 20  1  0  0  0  0
 18 31  1  0  0  0  0
 19 21  2  0  0  0  0
 19 32  1  0  0  0  0
 20 22  2  0  0  0  0
 21 22  1  0  0  0  0
 21 33  1  0  0  0  0
 22 34  1  0  0  0  0
M  END
> <PUBCHEM_COMPOUND_CID>
2427

> <PUBCHEM_COMPOUND_CANONICALIZED>
1

> <PUBCHEM_CACTVS_COMPLEXITY>
395

> <PUBCHEM_CACTVS_HBOND_ACCEPTOR>
4

> <PUBCHEM_CACTVS_HBOND_DONOR>
1

> <PUBCHEM_CACTVS_ROTATABLE_BOND>
2

> <PUBCHEM_CACTVS_SUBSKEYS>
AAADccB7gAAAEAAAAAAAAAAAAAAAAWAAAAA8YIAAAAAAAFix/gAAHABQAAABrAiBHgQ38PfMEACgAyZjZACCgC0xEqQJ2CA4dLiIaOLA2dGUJAhokALIyjcQgAAOCACAQAUCACAQAQCACgQAQAAAAAAAAA==

> <PUBCHEM_IUPAC_OPENEYE_NAME>
N-(3-bromophenyl)-3-methyl-imidazo[4,5-g]quinazolin-8-amine

> <PUBCHEM_IUPAC_CAS_NAME>
N-(3-bromophenyl)-3-methyl-8-imidazo[4,5-g]quinazolinamine

> <PUBCHEM_IUPAC_NAME>
N-(3-bromophenyl)-3-methylimidazo[4,5-g]quinazolin-8-amine

> <PUBCHEM_IUPAC_SYSTEMATIC_NAME>
N-(3-bromophenyl)-3-methyl-imidazo[4,5-g]quinazolin-8-amine

> <PUBCHEM_IUPAC_TRADITIONAL_NAME>
(3-bromophenyl)-(3-methylimidazo[4,5-g]quinazolin-8-yl)amine

> <PUBCHEM_IUPAC_INCHI>
InChI=1S/C16H12BrN5/c1-22-9-20-14-6-12-13(7-15(14)22)18-8-19-16(12)21-11-4-2-3-10(17)5-11/h2-9H,1H3,(H,18,19,21)

> <PUBCHEM_IUPAC_INCHIKEY>
YAMAGACQNDAKFB-UHFFFAOYSA-N

> <PUBCHEM_XLOGP3_AA>
3.6

> <PUBCHEM_EXACT_MASS>
353.028

> <PUBCHEM_MOLECULAR_FORMULA>
C16H12BrN5

> <PUBCHEM_MOLECULAR_WEIGHT>
354.211

> <PUBCHEM_OPENEYE_CAN_SMILES>
CN1C=NC2=C1C=C3C(=C2)C(=NC=N3)NC4=CC(=CC=C4)Br

> <PUBCHEM_OPENEYE_ISO_SMILES>
CN1C=NC2=C1C=C3C(=C2)C(=NC=N3)NC4=CC(=CC=C4)Br

> <PUBCHEM_CACTVS_TPSA>
55.6

> <PUBCHEM_MONOISOTOPIC_WEIGHT>
353.028

> <PUBCHEM_TOTAL_CHARGE>
0

> <PUBCHEM_HEAVY_ATOM_COUNT>
22

> <PUBCHEM_ATOM_DEF_STEREO_COUNT>
0

> <PUBCHEM_ATOM_UDEF_STEREO_COUNT>
0

> <PUBCHEM_BOND_DEF_STEREO_COUNT>
0

> <PUBCHEM_BOND_UDEF_STEREO_COUNT>
0

> <PUBCHEM_ISOTOPIC_ATOM_COUNT>
0

> <PUBCHEM_COMPONENT_COUNT>
1

> <PUBCHEM_CACTVS_TAUTO_COUNT>
3

> <PUBCHEM_COORDINATE_TYPE>
1
5
255

> <PUBCHEM_BONDANNOTATIONS>
10  12  8
16  18  8
16  19  8
18  20  8
19  21  8
2  14  8
2  7  8
20  22  8
21  22  8
3  14  8
3  9  8
5  10  8
5  17  8
6  13  8
6  17  8
7  12  8
7  9  8
8  10  8
8  11  8
8  13  8
9  11  8

$$$$
10377751
  -OEChem-11021605012D

 25 27  0     0  0  0  0  0  0999 V2000
    3.6636   -0.7312    0.0000 S   0  0  0  0  0  0  0  0  0  0  0  0
    5.2158    1.3392    0.0000 O   0  0  0  0  0  0  0  0  0  0  0  0
    2.0000   -0.0925    0.0000 O   0  0  0  0  0  0  0  0  0  0  0  0
    3.4945    0.8780    0.0000 N   0  0  0  0  0  0  0  0  0  0  0  0
    8.9352   -0.8591    0.0000 N   0  0  0  0  0  0  0  0  0  0  0  0
    8.9352    1.2102    0.0000 N   0  0  0  0  0  0  0  0  0  0  0  0
    6.3092   -0.3244    0.0000 C   0  0  0  0  0  0  0  0  0  0  0  0
    8.0413   -0.3244    0.0000 C   0  0  0  0  0  0  0  0  0  0  0  0
    7.1753   -0.8244    0.0000 C   0  0  0  0  0  0  0  0  0  0  0  0
    8.0413    0.6756    0.0000 C   0  0  0  0  0  0  0  0  0  0  0  0
    5.4432   -0.8244    0.0000 C   0  0  0  0  0  0  0  0  0  0  0  0
    6.3092    0.6756    0.0000 C   0  0  0  0  0  0  0  0  0  0  0  0
    4.5772   -0.3244    0.0000 C   0  0  0  0  0  0  0  0  0  0  0  0
    7.1753    1.1756    0.0000 C   0  0  0  0  0  0  0  0  0  0  0  0
    4.4727    0.6701    0.0000 C   0  0  0  0  0  0  0  0  0  0  0  0
    2.9945    0.0120    0.0000 C   0  0  0  0  0  0  0  0  0  0  0  0
    9.8413   -0.3452    0.0000 C   0  0  0  0  0  0  0  0  0  0  0  0
    9.8413    0.6964    0.0000 C   0  0  0  0  0  0  0  0  0  0  0  0
    7.1753   -1.4444    0.0000 H   0  0  0  0  0  0  0  0  0  0  0  0
    5.4432   -1.4444    0.0000 H   0  0  0  0  0  0  0  0  0  0  0  0
    5.7723    0.9856    0.0000 H   0  0  0  0  0  0  0  0  0  0  0  0
    7.1753    1.7956    0.0000 H   0  0  0  0  0  0  0  0  0  0  0  0
    3.2424    1.4444    0.0000 H   0  0  0  0  0  0  0  0  0  0  0  0
   10.3770   -0.6573    0.0000 H   0  0  0  0  0  0  0  0  0  0  0  0
   10.3770    1.0085    0.0000 H   0  0  0  0  0  0  0  0  0  0  0  0
  1 13  1  0  0  0  0
  1 16  1  0  0  0  0
  2 15  2  0  0  0  0
  3 16  2  0  0  0  0
  4 15  1  0  0  0  0
  4 16  1  0  0  0  0
  4 23  1  0  0  0  0
  5  8  2  0  0  0  0
  5 17  1  0  0  0  0
  6 10  2  0  0  0  0
  6 18  1  0  0  0  0
  7  9  2  0  0  0  0
  7 11  1  0  0  0  0
  7 12  1  0  0  0  0
  8  9  1  0  0  0  0
  8 10  1  0  0  0  0
  9 19  1  0  0  0  0
 10 14  1  0  0  0  0
 11 13  2  0  0  0  0
 11 20  1  0  0  0  0
 12 14  2  0  0  0  0
 12 21  1  0  0  0  0
 13 15  1  0  0  0  0
 14 22  1  0  0  0  0
 17 18  2  0  0  0  0
 17 24  1  0  0  0  0
 18 25  1  0  0  0  0
M  END
> <PUBCHEM_COMPOUND_CID>
10377751

> <PUBCHEM_COMPOUND_CANONICALIZED>
1

> <PUBCHEM_CACTVS_COMPLEXITY>
410

> <PUBCHEM_CACTVS_HBOND_ACCEPTOR>
5

> <PUBCHEM_CACTVS_HBOND_DONOR>
1

> <PUBCHEM_CACTVS_ROTATABLE_BOND>
1

> <PUBCHEM_CACTVS_SUBSKEYS>
AAADcYBzMABAAAAAAAAAAAAAAAAAAWAAAAA8QAAAAAAAAACx8AAAHgQQAAAADAjB3gQ8wLLIEAioAzV3VACCgCRxEjAI2CA4dNgIYOLAkZGUIAhghCDIyYcQgAAOCAAAQAAAACAQAACAAAAAQAAAAAAAAA==

> <PUBCHEM_IUPAC_OPENEYE_NAME>
(5E)-5-(quinoxalin-6-ylmethylene)thiazolidine-2,4-dione

> <PUBCHEM_IUPAC_CAS_NAME>
(5E)-5-(6-quinoxalinylmethylidene)thiazolidine-2,4-dione

> <PUBCHEM_IUPAC_NAME>
(5E)-5-(quinoxalin-6-ylmethylidene)-1,3-thiazolidine-2,4-dione

> <PUBCHEM_IUPAC_SYSTEMATIC_NAME>
(5E)-5-(quinoxalin-6-ylmethylidene)-1,3-thiazolidine-2,4-dione

> <PUBCHEM_IUPAC_TRADITIONAL_NAME>
(5E)-5-(quinoxalin-6-ylmethylene)thiazolidine-2,4-quinone

> <PUBCHEM_IUPAC_INCHI>
InChI=1S/C12H7N3O2S/c16-11-10(18-12(17)15-11)6-7-1-2-8-9(5-7)14-4-3-13-8/h1-6H,(H,15,16,17)/b10-6+

> <PUBCHEM_IUPAC_INCHIKEY>
SQWZFLMPDUSYGV-UXBLZVDNSA-N

> <PUBCHEM_XLOGP3_AA>
1.5

> <PUBCHEM_EXACT_MASS>
257.026

> <PUBCHEM_MOLECULAR_FORMULA>
C12H7N3O2S

> <PUBCHEM_MOLECULAR_WEIGHT>
257.267

> <PUBCHEM_OPENEYE_CAN_SMILES>
C1=CC2=NC=CN=C2C=C1C=C3C(=O)NC(=O)S3

> <PUBCHEM_OPENEYE_ISO_SMILES>
C1=CC2=NC=CN=C2C=C1/C=C/3\C(=O)NC(=O)S3

> <PUBCHEM_CACTVS_TPSA>
97.2

> <PUBCHEM_MONOISOTOPIC_WEIGHT>
257.026

> <PUBCHEM_TOTAL_CHARGE>
0

> <PUBCHEM_HEAVY_ATOM_COUNT>
18

> <PUBCHEM_ATOM_DEF_STEREO_COUNT>
0

> <PUBCHEM_ATOM_UDEF_STEREO_COUNT>
0

> <PUBCHEM_BOND_DEF_STEREO_COUNT>
1

> <PUBCHEM_BOND_UDEF_STEREO_COUNT>
0

> <PUBCHEM_ISOTOPIC_ATOM_COUNT>
0

> <PUBCHEM_COMPONENT_COUNT>
1

> <PUBCHEM_CACTVS_TAUTO_COUNT>
3

> <PUBCHEM_COORDINATE_TYPE>
1
5
255

> <PUBCHEM_BONDANNOTATIONS>
10  14  8
12  14  8
17  18  8
5  17  8
5  8  8
6  10  8
6  18  8
7  12  8
7  9  8
8  10  8
8  9  8

$$$$
4712
  -OEChem-11021605012D

 40 43  0     0  0  0  0  0  0999 V2000
    2.0000    4.6374    0.0000 F   0  0  0  0  0  0  0  0  0  0  0  0
    3.9851   -4.6374    0.0000 O   0  5  0  0  0  0  0  0  0  0  0  0
    5.7172   -4.6374    0.0000 O   0  0  0  0  0  0  0  0  0  0  0  0
    5.6602    0.4503    0.0000 N   0  0  0  0  0  0  0  0  0  0  0  0
    4.0421    0.4503    0.0000 N   0  0  0  0  0  0  0  0  0  0  0  0
    7.1145    3.8284    0.0000 N   0  0  0  0  0  0  0  0  0  0  0  0
    4.8511   -4.1374    0.0000 N   0  3  0  0  0  0  0  0  0  0  0  0
    5.3511    1.4014    0.0000 C   0  0  0  0  0  0  0  0  0  0  0  0
    4.3511    1.4014    0.0000 C   0  0  0  0  0  0  0  0  0  0  0  0
    4.8511   -0.1375    0.0000 C   0  0  0  0  0  0  0  0  0  0  0  0
    3.7634    2.2104    0.0000 C   0  0  0  0  0  0  0  0  0  0  0  0
    4.8511   -1.1374    0.0000 C   0  0  0  0  0  0  0  0  0  0  0  0
    5.9389    2.2104    0.0000 C   0  0  0  0  0  0  0  0  0  0  0  0
    3.9851   -1.6374    0.0000 C   0  0  0  0  0  0  0  0  0  0  0  0
    5.7172   -1.6374    0.0000 C   0  0  0  0  0  0  0  0  0  0  0  0
    4.1701    3.1239    0.0000 C   0  0  0  0  0  0  0  0  0  0  0  0
    2.7688    2.1059    0.0000 C   0  0  0  0  0  0  0  0  0  0  0  0
    5.5322    3.1239    0.0000 C   0  0  0  0  0  0  0  0  0  0  0  0
    6.9334    2.1059    0.0000 C   0  0  0  0  0  0  0  0  0  0  0  0
    3.9851   -2.6374    0.0000 C   0  0  0  0  0  0  0  0  0  0  0  0
    5.7172   -2.6374    0.0000 C   0  0  0  0  0  0  0  0  0  0  0  0
    4.8511   -3.1374    0.0000 C   0  0  0  0  0  0  0  0  0  0  0  0
    3.5823    3.9330    0.0000 C   0  0  0  0  0  0  0  0  0  0  0  0
    2.1810    2.9149    0.0000 C   0  0  0  0  0  0  0  0  0  0  0  0
    2.5878    3.8284    0.0000 C   0  0  0  0  0  0  0  0  0  0  0  0
    6.1200    3.9330    0.0000 C   0  0  0  0  0  0  0  0  0  0  0  0
    7.5212    2.9149    0.0000 C   0  0  0  0  0  0  0  0  0  0  0  0
    6.2498    0.2587    0.0000 H   0  0  0  0  0  0  0  0  0  0  0  0
    3.4482   -1.3274    0.0000 H   0  0  0  0  0  0  0  0  0  0  0  0
    6.2541   -1.3274    0.0000 H   0  0  0  0  0  0  0  0  0  0  0  0
    4.7867    3.1888    0.0000 H   0  0  0  0  0  0  0  0  0  0  0  0
    2.5167    1.5395    0.0000 H   0  0  0  0  0  0  0  0  0  0  0  0
    4.9156    3.1888    0.0000 H   0  0  0  0  0  0  0  0  0  0  0  0
    7.1856    1.5395    0.0000 H   0  0  0  0  0  0  0  0  0  0  0  0
    3.4482   -2.9474    0.0000 H   0  0  0  0  0  0  0  0  0  0  0  0
    6.2541   -2.9474    0.0000 H   0  0  0  0  0  0  0  0  0  0  0  0
    3.8345    4.4994    0.0000 H   0  0  0  0  0  0  0  0  0  0  0  0
    1.5644    2.8501    0.0000 H   0  0  0  0  0  0  0  0  0  0  0  0
    5.8678    4.4994    0.0000 H   0  0  0  0  0  0  0  0  0  0  0  0
    8.1378    2.8501    0.0000 H   0  0  0  0  0  0  0  0  0  0  0  0
  1 25  1  0  0  0  0
  2  7  1  0  0  0  0
  3  7  2  0  0  0  0
  4  8  1  0  0  0  0
  4 10  1  0  0  0  0
  4 28  1  0  0  0  0
  5  9  1  0  0  0  0
  5 10  2  0  0  0  0
  6 26  2  0  0  0  0
  6 27  1  0  0  0  0
  7 22  1  0  0  0  0
  8  9  2  0  0  0  0
  8 13  1  0  0  0  0
  9 11  1  0  0  0  0
 10 12  1  0  0  0  0
 11 16  2  0  0  0  0
 11 17  1  0  0  0  0
 12 14  2  0  0  0  0
 12 15  1  0  0  0  0
 13 18  2  0  0  0  0
 13 19  1  0  0  0  0
 14 20  1  0  0  0  0
 14 29  1  0  0  0  0
 15 21  2  0  0  0  0
 15 30  1  0  0  0  0
 16 23  1  0  0  0  0
 16 31  1  0  0  0  0
 17 24  2  0  0  0  0
 17 32  1  0  0  0  0
 18 26  1  0  0  0  0
 18 33  1  0  0  0  0
 19 27  2  0  0  0  0
 19 34  1  0  0  0  0
 20 22  2  0  0  0  0
 20 35  1  0  0  0  0
 21 22  1  0  0  0  0
 21 36  1  0  0  0  0
 23 25  2  0  0  0  0
 23 37  1  0  0  0  0
 24 25  1  0  0  0  0
 24 38  1  0  0  0  0
 26 39  1  0  0  0  0
 27 40  1  0  0  0  0
M  CHG  2   2  -1   7   1
M  END
> <PUBCHEM_COMPOUND_CID>
4712

> <PUBCHEM_COMPOUND_CANONICALIZED>
1

> <PUBCHEM_CACTVS_COMPLEXITY>
495

> <PUBCHEM_CACTVS_HBOND_ACCEPTOR>
5

> <PUBCHEM_CACTVS_HBOND_DONOR>
1

> <PUBCHEM_CACTVS_ROTATABLE_BOND>
3

> <PUBCHEM_CACTVS_SUBSKEYS>
AAADccB7sQAAAAAAAAAAAAAAAAAAAWAAAAA8YIAAAAAAAAAB9AAAHQAUAAAADAjBHww90JbZ0AChAzZnZwCCgC2xEqAp2SA4dJqIaOLAmZGUIAhogALIyCcQgMAOCAAAAAAAAAAQAAAAAAAAAAAAAAAAAA==

> <PUBCHEM_IUPAC_OPENEYE_NAME>
4-[4-(4-fluorophenyl)-2-(4-nitrophenyl)-1H-imidazol-5-yl]pyridine

> <PUBCHEM_IUPAC_CAS_NAME>
4-[4-(4-fluorophenyl)-2-(4-nitrophenyl)-1H-imidazol-5-yl]pyridine

> <PUBCHEM_IUPAC_NAME>
4-[4-(4-fluorophenyl)-2-(4-nitrophenyl)-1H-imidazol-5-yl]pyridine

> <PUBCHEM_IUPAC_SYSTEMATIC_NAME>
4-[4-(4-fluorophenyl)-2-(4-nitrophenyl)-1H-imidazol-5-yl]pyridine

> <PUBCHEM_IUPAC_TRADITIONAL_NAME>
4-[4-(4-fluorophenyl)-2-(4-nitrophenyl)-1H-imidazol-5-yl]pyridine

> <PUBCHEM_IUPAC_INCHI>
InChI=1S/C20H13FN4O2/c21-16-5-1-13(2-6-16)18-19(14-9-11-22-12-10-14)24-20(23-18)15-3-7-17(8-4-15)25(26)27/h1-12H,(H,23,24)

> <PUBCHEM_IUPAC_INCHIKEY>
BGIYKDUASORTBB-UHFFFAOYSA-N

> <PUBCHEM_XLOGP3_AA>
3.9

> <PUBCHEM_EXACT_MASS>
360.102

> <PUBCHEM_MOLECULAR_FORMULA>
C20H13FN4O2

> <PUBCHEM_MOLECULAR_WEIGHT>
360.348

> <PUBCHEM_OPENEYE_CAN_SMILES>
C1=CC(=CC=C1C2=NC(=C(N2)C3=CC=NC=C3)C4=CC=C(C=C4)F)[N+](=O)[O-]

> <PUBCHEM_OPENEYE_ISO_SMILES>
C1=CC(=CC=C1C2=NC(=C(N2)C3=CC=NC=C3)C4=CC=C(C=C4)F)[N+](=O)[O-]

> <PUBCHEM_CACTVS_TPSA>
87.4

> <PUBCHEM_MONOISOTOPIC_WEIGHT>
360.102

> <PUBCHEM_TOTAL_CHARGE>
0

> <PUBCHEM_HEAVY_ATOM_COUNT>
27

> <PUBCHEM_ATOM_DEF_STEREO_COUNT>
0

> <PUBCHEM_ATOM_UDEF_STEREO_COUNT>
0

> <PUBCHEM_BOND_DEF_STEREO_COUNT>
0

> <PUBCHEM_BOND_UDEF_STEREO_COUNT>
0

> <PUBCHEM_ISOTOPIC_ATOM_COUNT>
0

> <PUBCHEM_COMPONENT_COUNT>
1

> <PUBCHEM_CACTVS_TAUTO_COUNT>
3

> <PUBCHEM_COORDINATE_TYPE>
1
5
255

> <PUBCHEM_BONDANNOTATIONS>
11  16  8
11  17  8
12  14  8
12  15  8
13  18  8
13  19  8
14  20  8
15  21  8
16  23  8
17  24  8
18  26  8
19  27  8
20  22  8
21  22  8
23  25  8
24  25  8
4  10  8
4  8  8
5  10  8
5  9  8
6  26  8
6  27  8
8  9  8

$$$$
6419741
  -OEChem-11021605012D

 29 33  0     0  0  0  0  0  0999 V2000
    6.3326   -0.8643    0.0000 O   0  0  0  0  0  0  0  0  0  0  0  0
    6.3326    2.6462    0.0000 O   0  0  0  0  0  0  0  0  0  0  0  0
    3.3437    1.3909    0.0000 N   0  0  0  0  0  0  0  0  0  0  0  0
    2.6067   -0.2762    0.0000 N   0  0  0  0  0  0  0  0  0  0  0  0
    6.6056    0.8909    0.0000 N   0  0  0  0  0  0  0  0  0  0  0  0
    3.0118    2.9658    0.0000 N   0  0  0  0  0  0  0  0  0  0  0  0
    4.2097   -0.1091    0.0000 C   0  0  0  0  0  0  0  0  0  0  0  0
    3.3437    0.3909    0.0000 C   0  0  0  0  0  0  0  0  0  0  0  0
    5.0757    0.3909    0.0000 C   0  0  0  0  0  0  0  0  0  0  0  0
    5.0757    1.3909    0.0000 C   0  0  0  0  0  0  0  0  0  0  0  0
    4.0005   -1.0809    0.0000 C   0  0  0  0  0  0  0  0  0  0  0  0
    4.2097    1.8909    0.0000 C   0  0  0  0  0  0  0  0  0  0  0  0
    3.0118   -1.1839    0.0000 C   0  0  0  0  0  0  0  0  0  0  0  0
    6.0220    0.0862    0.0000 C   0  0  0  0  0  0  0  0  0  0  0  0
    6.0220    1.6957    0.0000 C   0  0  0  0  0  0  0  0  0  0  0  0
    2.6067    2.0580    0.0000 C   0  0  0  0  0  0  0  0  0  0  0  0
    4.0005    2.8627    0.0000 C   0  0  0  0  0  0  0  0  0  0  0  0
    4.6213   -1.9096    0.0000 C   0  0  0  0  0  0  0  0  0  0  0  0
    2.5753   -2.1229    0.0000 C   0  0  0  0  0  0  0  0  0  0  0  0
    4.2066   -2.8584    0.0000 C   0  0  0  0  0  0  0  0  0  0  0  0
    3.1767   -2.9658    0.0000 C   0  0  0  0  0  0  0  0  0  0  0  0
    2.0000   -0.1483    0.0000 H   0  0  0  0  0  0  0  0  0  0  0  0
    2.0000    1.9302    0.0000 H   0  0  0  0  0  0  0  0  0  0  0  0
    4.4146    3.3242    0.0000 H   0  0  0  0  0  0  0  0  0  0  0  0
    7.2256    0.8909    0.0000 H   0  0  0  0  0  0  0  0  0  0  0  0
    5.2371   -1.8382    0.0000 H   0  0  0  0  0  0  0  0  0  0  0  0
    1.9579   -2.1800    0.0000 H   0  0  0  0  0  0  0  0  0  0  0  0
    4.5725   -3.3590    0.0000 H   0  0  0  0  0  0  0  0  0  0  0  0
    2.9219   -3.5310    0.0000 H   0  0  0  0  0  0  0  0  0  0  0  0
  1 14  2  0  0  0  0
  2 15  2  0  0  0  0
  3  8  1  0  0  0  0
  3 12  1  0  0  0  0
  3 16  1  0  0  0  0
  4  8  1  0  0  0  0
  4 13  1  0  0  0  0
  4 22  1  0  0  0  0
  5 14  1  0  0  0  0
  5 15  1  0  0  0  0
  5 25  1  0  0  0  0
  6 16  2  0  0  0  0
  6 17  1  0  0  0  0
  7  8  2  0  0  0  0
  7  9  1  0  0  0  0
  7 11  1  0  0  0  0
  9 10  2  0  0  0  0
  9 14  1  0  0  0  0
 10 12  1  0  0  0  0
 10 15  1  0  0  0  0
 11 13  1  0  0  0  0
 11 18  2  0  0  0  0
 12 17  2  0  0  0  0
 13 19  2  0  0  0  0
 16 23  1  0  0  0  0
 17 24  1  0  0  0  0
 18 20  1  0  0  0  0
 18 26  1  0  0  0  0
 19 21  1  0  0  0  0
 19 27  1  0  0  0  0
 20 21  2  0  0  0  0
 20 28  1  0  0  0  0
 21 29  1  0  0  0  0
M  END
> <PUBCHEM_COMPOUND_CID>
6419741

> <PUBCHEM_COMPOUND_CANONICALIZED>
1

> <PUBCHEM_CACTVS_COMPLEXITY>
510

> <PUBCHEM_CACTVS_HBOND_ACCEPTOR>
3

> <PUBCHEM_CACTVS_HBOND_DONOR>
2

> <PUBCHEM_CACTVS_ROTATABLE_BOND>
0

> <PUBCHEM_CACTVS_SUBSKEYS>
AAADccBzsAAAAAAAAAAAAAAAAAAAAWLFgAA8QAAAAAAAAFgB/gAAHgAQAAAADAjBnwQ98P/NmACoAzd3dACCgC21EqAJ2SE4dNiIaPrA3ZGUIYholCLIyWcdicCegAAAAAACAAAAAAAAAAQAAAAAAAAAAA==

> <PUBCHEM_IUPAC_INCHI>
InChI=1S/C15H8N4O2/c20-14-11-9-5-16-6-19(9)13-10(12(11)15(21)18-14)7-3-1-2-4-8(7)17-13/h1-6,17H,(H,18,20,21)

> <PUBCHEM_IUPAC_INCHIKEY>
WXUJAQBSBZLVEV-UHFFFAOYSA-N

> <PUBCHEM_XLOGP3_AA>
2.4

> <PUBCHEM_EXACT_MASS>
276.065

> <PUBCHEM_MOLECULAR_FORMULA>
C15H8N4O2

> <PUBCHEM_MOLECULAR_WEIGHT>
276.255

> <PUBCHEM_OPENEYE_CAN_SMILES>
C1=CC=C2C(=C1)C3=C(N2)N4C=NC=C4C5=C3C(=O)NC5=O

> <PUBCHEM_OPENEYE_ISO_SMILES>
C1=CC=C2C(=C1)C3=C(N2)N4C=NC=C4C5=C3C(=O)NC5=O

> <PUBCHEM_CACTVS_TPSA>
79.3

> <PUBCHEM_MONOISOTOPIC_WEIGHT>
276.065

> <PUBCHEM_TOTAL_CHARGE>
0

> <PUBCHEM_HEAVY_ATOM_COUNT>
21

> <PUBCHEM_ATOM_DEF_STEREO_COUNT>
0

> <PUBCHEM_ATOM_UDEF_STEREO_COUNT>
0

> <PUBCHEM_BOND_DEF_STEREO_COUNT>
0

> <PUBCHEM_BOND_UDEF_STEREO_COUNT>
0

> <PUBCHEM_ISOTOPIC_ATOM_COUNT>
0

> <PUBCHEM_COMPONENT_COUNT>
1

> <PUBCHEM_CACTVS_TAUTO_COUNT>
11

> <PUBCHEM_COORDINATE_TYPE>
1
5
255

> <PUBCHEM_BONDANNOTATIONS>
10  12  8
11  13  8
11  18  8
12  17  8
13  19  8
18  20  8
19  21  8
20  21  8
3  12  8
3  16  8
3  8  8
4  13  8
4  8  8
6  16  8
6  17  8
7  11  8
7  8  8
7  9  8
9  10  8

$$$$
5326739
  -OEChem-11021605012D

 32 35  0     0  0  0  0  0  0999 V2000
    6.5348   -2.4221    0.0000 O   0  0  0  0  0  0  0  0  0  0  0  0
    4.3211    1.8327    0.0000 O   0  0  0  0  0  0  0  0  0  0  0  0
    4.6783   -1.4715    0.0000 N   0  0  0  0  0  0  0  0  0  0  0  0
    4.9889    1.0884    0.0000 N   0  0  0  0  0  0  0  0  0  0  0  0
    7.7917   -1.1668    0.0000 N   0  0  0  0  0  0  0  0  0  0  0  0
    5.2619   -0.6668    0.0000 C   0  0  0  0  0  0  0  0  0  0  0  0
    6.2619   -0.6668    0.0000 C   0  0  0  0  0  0  0  0  0  0  0  0
    4.6783    0.1379    0.0000 C   0  0  0  0  0  0  0  0  0  0  0  0
    3.7320   -0.1668    0.0000 C   0  0  0  0  0  0  0  0  0  0  0  0
    3.7320   -1.1668    0.0000 C   0  0  0  0  0  0  0  0  0  0  0  0
    6.8455    0.1379    0.0000 C   0  0  0  0  0  0  0  0  0  0  0  0
    7.7960   -0.1727    0.0000 C   0  0  0  0  0  0  0  0  0  0  0  0
    6.8455   -1.4715    0.0000 C   0  0  0  0  0  0  0  0  0  0  0  0
    2.8660    0.3332    0.0000 C   0  0  0  0  0  0  0  0  0  0  0  0
    2.8660   -1.6668    0.0000 C   0  0  0  0  0  0  0  0  0  0  0  0
    6.6393    1.1164    0.0000 C   0  0  0  0  0  0  0  0  0  0  0  0
    2.0000   -0.1668    0.0000 C   0  0  0  0  0  0  0  0  0  0  0  0
    2.0000   -1.1668    0.0000 C   0  0  0  0  0  0  0  0  0  0  0  0
    8.5403    0.4951    0.0000 C   0  0  0  0  0  0  0  0  0  0  0  0
    7.3836    1.7843    0.0000 C   0  0  0  0  0  0  0  0  0  0  0  0
    8.3341    1.4736    0.0000 C   0  0  0  0  0  0  0  0  0  0  0  0
    4.8709   -2.0609    0.0000 H   0  0  0  0  0  0  0  0  0  0  0  0
    2.8660    0.9532    0.0000 H   0  0  0  0  0  0  0  0  0  0  0  0
    2.8660   -2.2868    0.0000 H   0  0  0  0  0  0  0  0  0  0  0  0
    6.0500    1.3090    0.0000 H   0  0  0  0  0  0  0  0  0  0  0  0
    5.5956    1.2163    0.0000 H   0  0  0  0  0  0  0  0  0  0  0  0
    1.4631    0.1432    0.0000 H   0  0  0  0  0  0  0  0  0  0  0  0
    1.4631   -1.4768    0.0000 H   0  0  0  0  0  0  0  0  0  0  0  0
    9.1296    0.3025    0.0000 H   0  0  0  0  0  0  0  0  0  0  0  0
    7.2557    2.3909    0.0000 H   0  0  0  0  0  0  0  0  0  0  0  0
    8.7956    1.8877    0.0000 H   0  0  0  0  0  0  0  0  0  0  0  0
    4.5137    2.4221    0.0000 H   0  0  0  0  0  0  0  0  0  0  0  0
  1 13  2  0  0  0  0
  2  4  1  0  0  0  0
  2 32  1  0  0  0  0
  3  6  1  0  0  0  0
  3 10  1  0  0  0  0
  3 22  1  0  0  0  0
  4  8  1  0  0  0  0
  4 26  1  0  0  0  0
  5 12  2  0  0  0  0
  5 13  1  0  0  0  0
  6  7  1  0  0  0  0
  6  8  2  0  0  0  0
  7 11  2  0  0  0  0
  7 13  1  0  0  0  0
  8  9  1  0  0  0  0
  9 10  1  0  0  0  0
  9 14  2  0  0  0  0
 10 15  2  0  0  0  0
 11 12  1  0  0  0  0
 11 16  1  0  0  0  0
 12 19  1  0  0  0  0
 14 17  1  0  0  0  0
 14 23  1  0  0  0  0
 15 18  1  0  0  0  0
 15 24  1  0  0  0  0
 16 20  2  0  0  0  0
 16 25  1  0  0  0  0
 17 18  2  0  0  0  0
 17 27  1  0  0  0  0
 18 28  1  0  0  0  0
 19 21  2  0  0  0  0
 19 29  1  0  0  0  0
 20 21  1  0  0  0  0
 20 30  1  0  0  0  0
 21 31  1  0  0  0  0
M  END
> <PUBCHEM_COMPOUND_CID>
5326739

> <PUBCHEM_COMPOUND_CANONICALIZED>
1

> <PUBCHEM_CACTVS_COMPLEXITY>
603

> <PUBCHEM_CACTVS_HBOND_ACCEPTOR>
3

> <PUBCHEM_CACTVS_HBOND_DONOR>
3

> <PUBCHEM_CACTVS_ROTATABLE_BOND>
2

> <PUBCHEM_CACTVS_SUBSKEYS>
AAADccB7MAAAAAAAAAAAAAAAAAAAAWIAAAAwQAAAAAAAAFgB8AAAHgAUCAAADAiBngAwwPLZkACoAyVyVACCgCAhEiAomSEwdNgIYPrA1dGUJAhgkADIyQcciICOAAAAAAACAAAAAAAAAAQAAAAAAAAAAA==

> <PUBCHEM_IUPAC_OPENEYE_NAME>
3-[3-(hydroxyamino)-1H-indol-2-yl]indol-2-one

> <PUBCHEM_IUPAC_CAS_NAME>
3-[3-(hydroxyamino)-1H-indol-2-yl]-2-indolone

> <PUBCHEM_IUPAC_NAME>
3-[3-(hydroxyamino)-1H-indol-2-yl]indol-2-one

> <PUBCHEM_IUPAC_SYSTEMATIC_NAME>
3-[3-(oxidanylamino)-1H-indol-2-yl]indol-2-one

> <PUBCHEM_IUPAC_TRADITIONAL_NAME>
3-[3-(hydroxyamino)-1H-indol-2-yl]indol-2-one

> <PUBCHEM_IUPAC_INCHI>
InChI=1S/C16H11N3O2/c20-16-13(9-5-1-3-7-11(9)18-16)15-14(19-21)10-6-2-4-8-12(10)17-15/h1-8,17,19,21H

> <PUBCHEM_IUPAC_INCHIKEY>
LDEWQRSYYHTQRA-UHFFFAOYSA-N

> <PUBCHEM_XLOGP3_AA>
2.2

> <PUBCHEM_EXACT_MASS>
277.085

> <PUBCHEM_MOLECULAR_FORMULA>
C16H11N3O2

> <PUBCHEM_MOLECULAR_WEIGHT>
277.283

> <PUBCHEM_OPENEYE_CAN_SMILES>
C1=CC=C2C(=C1)C(=C(N2)C3=C4C=CC=CC4=NC3=O)NO

> <PUBCHEM_OPENEYE_ISO_SMILES>
C1=CC=C2C(=C1)C(=C(N2)C3=C4C=CC=CC4=NC3=O)NO

> <PUBCHEM_CACTVS_TPSA>
77.5

> <PUBCHEM_MONOISOTOPIC_WEIGHT>
277.085

> <PUBCHEM_TOTAL_CHARGE>
0

> <PUBCHEM_HEAVY_ATOM_COUNT>
21

> <PUBCHEM_ATOM_DEF_STEREO_COUNT>
0

> <PUBCHEM_ATOM_UDEF_STEREO_COUNT>
0

> <PUBCHEM_BOND_DEF_STEREO_COUNT>
0

> <PUBCHEM_BOND_UDEF_STEREO_COUNT>
0

> <PUBCHEM_ISOTOPIC_ATOM_COUNT>
0

> <PUBCHEM_COMPONENT_COUNT>
1

> <PUBCHEM_CACTVS_TAUTO_COUNT>
114

> <PUBCHEM_COORDINATE_TYPE>
1
5
255

> <PUBCHEM_BONDANNOTATIONS>
10  15  8
11  12  8
11  16  8
12  19  8
14  17  8
15  18  8
16  20  8
17  18  8
19  21  8
20  21  8
3  10  8
3  6  8
6  8  8
8  9  8
9  10  8
9  14  8

$$$$
5164
  -OEChem-11021605012D

 44 47  0     0  0  0  0  0  0999 V2000
   10.8651    0.3923    0.0000 F   0  0  0  0  0  0  0  0  0  0  0  0
    5.4428    1.6284    0.0000 N   0  0  0  0  0  0  0  0  0  0  0  0
    2.5896    0.7013    0.0000 N   0  0  0  0  0  0  0  0  0  0  0  0
    6.7518    2.5794    0.0000 N   0  0  0  0  0  0  0  0  0  0  0  0
    5.3858   -0.4594    0.0000 N   0  0  0  0  0  0  0  0  0  0  0  0
    6.2518   -1.9594    0.0000 N   0  0  0  0  0  0  0  0  0  0  0  0
    4.5198   -1.9594    0.0000 N   0  0  0  0  0  0  0  0  0  0  0  0
    4.4918    1.3194    0.0000 C   0  0  0  0  0  0  0  0  0  0  0  0
    4.2839    0.3412    0.0000 C   0  0  0  0  0  0  0  0  0  0  0  0
    3.7486    1.9885    0.0000 C   0  0  0  0  0  0  0  0  0  0  0  0
    3.3328    0.0322    0.0000 C   0  0  0  0  0  0  0  0  0  0  0  0
    2.7976    1.6795    0.0000 C   0  0  0  0  0  0  0  0  0  0  0  0
    6.2518    1.0406    0.0000 C   0  0  0  0  0  0  0  0  0  0  0  0
    5.7518    2.5794    0.0000 C   0  0  0  0  0  0  0  0  0  0  0  0
    7.0609    1.6284    0.0000 C   0  0  0  0  0  0  0  0  0  0  0  0
    6.2518    0.0406    0.0000 C   0  0  0  0  0  0  0  0  0  0  0  0
    8.0119    1.3194    0.0000 C   0  0  0  0  0  0  0  0  0  0  0  0
    7.1179   -0.4594    0.0000 C   0  0  0  0  0  0  0  0  0  0  0  0
    8.2198    0.3412    0.0000 C   0  0  0  0  0  0  0  0  0  0  0  0
    8.7551    1.9885    0.0000 C   0  0  0  0  0  0  0  0  0  0  0  0
    7.1179   -1.4594    0.0000 C   0  0  0  0  0  0  0  0  0  0  0  0
    5.3858   -1.4594    0.0000 C   0  0  0  0  0  0  0  0  0  0  0  0
    9.1709    0.0322    0.0000 C   0  0  0  0  0  0  0  0  0  0  0  0
    9.7061    1.6795    0.0000 C   0  0  0  0  0  0  0  0  0  0  0  0
    9.9140    0.7013    0.0000 C   0  0  0  0  0  0  0  0  0  0  0  0
    4.6207    1.9258    0.0000 H   0  0  0  0  0  0  0  0  0  0  0  0
    4.3701   -0.2728    0.0000 H   0  0  0  0  0  0  0  0  0  0  0  0
    4.9035    0.3196    0.0000 H   0  0  0  0  0  0  0  0  0  0  0  0
    4.2372    2.3702    0.0000 H   0  0  0  0  0  0  0  0  0  0  0  0
    3.4576    2.5359    0.0000 H   0  0  0  0  0  0  0  0  0  0  0  0
    2.8442   -0.3495    0.0000 H   0  0  0  0  0  0  0  0  0  0  0  0
    3.6239   -0.5152    0.0000 H   0  0  0  0  0  0  0  0  0  0  0  0
    2.7113    2.2934    0.0000 H   0  0  0  0  0  0  0  0  0  0  0  0
    2.1779    1.7011    0.0000 H   0  0  0  0  0  0  0  0  0  0  0  0
    2.0000    0.5097    0.0000 H   0  0  0  0  0  0  0  0  0  0  0  0
    5.3874    3.0810    0.0000 H   0  0  0  0  0  0  0  0  0  0  0  0
    7.6548   -0.1494    0.0000 H   0  0  0  0  0  0  0  0  0  0  0  0
    7.7591   -0.0737    0.0000 H   0  0  0  0  0  0  0  0  0  0  0  0
    8.6262    2.5949    0.0000 H   0  0  0  0  0  0  0  0  0  0  0  0
    7.6548   -1.7694    0.0000 H   0  0  0  0  0  0  0  0  0  0  0  0
    9.2998   -0.5743    0.0000 H   0  0  0  0  0  0  0  0  0  0  0  0
   10.1669    2.0943    0.0000 H   0  0  0  0  0  0  0  0  0  0  0  0
    4.5198   -2.5794    0.0000 H   0  0  0  0  0  0  0  0  0  0  0  0
    3.9829   -1.6494    0.0000 H   0  0  0  0  0  0  0  0  0  0  0  0
  1 25  1  0  0  0  0
  2  8  1  0  0  0  0
  2 13  1  0  0  0  0
  2 14  1  0  0  0  0
  3 11  1  0  0  0  0
  3 12  1  0  0  0  0
  3 35  1  0  0  0  0
  4 14  2  0  0  0  0
  4 15  1  0  0  0  0
  5 16  2  0  0  0  0
  5 22  1  0  0  0  0
  6 21  1  0  0  0  0
  6 22  2  0  0  0  0
  7 22  1  0  0  0  0
  7 43  1  0  0  0  0
  7 44  1  0  0  0  0
  8  9  1  0  0  0  0
  8 10  1  0  0  0  0
  8 26  1  0  0  0  0
  9 11  1  0  0  0  0
  9 27  1  0  0  0  0
  9 28  1  0  0  0  0
 10 12  1  0  0  0  0
 10 29  1  0  0  0  0
 10 30  1  0  0  0  0
 11 31  1  0  0  0  0
 11 32  1  0  0  0  0
 12 33  1  0  0  0  0
 12 34  1  0  0  0  0
 13 15  2  0  0  0  0
 13 16  1  0  0  0  0
 14 36  1  0  0  0  0
 15 17  1  0  0  0  0
 16 18  1  0  0  0  0
 17 19  2  0  0  0  0
 17 20  1  0  0  0  0
 18 21  2  0  0  0  0
 18 37  1  0  0  0  0
 19 23  1  0  0  0  0
 19 38  1  0  0  0  0
 20 24  2  0  0  0  0
 20 39  1  0  0  0  0
 21 40  1  0  0  0  0
 23 25  2  0  0  0  0
 23 41  1  0  0  0  0
 24 25  1  0  0  0  0
 24 42  1  0  0  0  0
M  END
> <PUBCHEM_COMPOUND_CID>
5164

> <PUBCHEM_COMPOUND_CANONICALIZED>
1

> <PUBCHEM_CACTVS_COMPLEXITY>
424

> <PUBCHEM_CACTVS_HBOND_ACCEPTOR>
6

> <PUBCHEM_CACTVS_HBOND_DONOR>
2

> <PUBCHEM_CACTVS_ROTATABLE_BOND>
3

> <PUBCHEM_CACTVS_SUBSKEYS>
AAADceB7gQAAAAAAAAAAAAAAAAAAAWAAAAA8WIAAAAAAAAAB8AAAHQAQAAAADCjBHgw9kJfMEACgAzRnZACCgC0xEqAJ2KA4dJiIaKLA2dGUJAhokALIyCcQgMAOAAAAAAAAAAAAAAAAAAAAAAAAAAAAAA==

> <PUBCHEM_IUPAC_OPENEYE_NAME>
4-[5-(4-fluorophenyl)-3-(4-piperidyl)imidazol-4-yl]pyrimidin-2-amine

> <PUBCHEM_IUPAC_CAS_NAME>
4-[5-(4-fluorophenyl)-3-(4-piperidinyl)-4-imidazolyl]-2-pyrimidinamine

> <PUBCHEM_IUPAC_NAME>
4-[5-(4-fluorophenyl)-3-piperidin-4-ylimidazol-4-yl]pyrimidin-2-amine

> <PUBCHEM_IUPAC_SYSTEMATIC_NAME>
4-[5-(4-fluorophenyl)-3-piperidin-4-yl-imidazol-4-yl]pyrimidin-2-amine

> <PUBCHEM_IUPAC_TRADITIONAL_NAME>
[4-[5-(4-fluorophenyl)-3-(4-piperidyl)imidazol-4-yl]pyrimidin-2-yl]amine

> <PUBCHEM_IUPAC_INCHI>
InChI=1S/C18H19FN6/c19-13-3-1-12(2-4-13)16-17(15-7-10-22-18(20)24-15)25(11-23-16)14-5-8-21-9-6-14/h1-4,7,10-11,14,21H,5-6,8-9H2,(H2,20,22,24)

> <PUBCHEM_IUPAC_INCHIKEY>
VSPFURGQAYMVAN-UHFFFAOYSA-N

> <PUBCHEM_XLOGP3_AA>
1.4

> <PUBCHEM_EXACT_MASS>
338.166

> <PUBCHEM_MOLECULAR_FORMULA>
C18H19FN6

> <PUBCHEM_MOLECULAR_WEIGHT>
338.39

> <PUBCHEM_OPENEYE_CAN_SMILES>
C1CNCCC1N2C=NC(=C2C3=NC(=NC=C3)N)C4=CC=C(C=C4)F

> <PUBCHEM_OPENEYE_ISO_SMILES>
C1CNCCC1N2C=NC(=C2C3=NC(=NC=C3)N)C4=CC=C(C=C4)F

> <PUBCHEM_CACTVS_TPSA>
81.6

> <PUBCHEM_MONOISOTOPIC_WEIGHT>
338.166

> <PUBCHEM_TOTAL_CHARGE>
0

> <PUBCHEM_HEAVY_ATOM_COUNT>
25

> <PUBCHEM_ATOM_DEF_STEREO_COUNT>
0

> <PUBCHEM_ATOM_UDEF_STEREO_COUNT>
0

> <PUBCHEM_BOND_DEF_STEREO_COUNT>
0

> <PUBCHEM_BOND_UDEF_STEREO_COUNT>
0

> <PUBCHEM_ISOTOPIC_ATOM_COUNT>
0

> <PUBCHEM_COMPONENT_COUNT>
1

> <PUBCHEM_CACTVS_TAUTO_COUNT>
3

> <PUBCHEM_COORDINATE_TYPE>
1
5
255

> <PUBCHEM_BONDANNOTATIONS>
13  15  8
16  18  8
17  19  8
17  20  8
18  21  8
19  23  8
2  13  8
2  14  8
20  24  8
23  25  8
24  25  8
4  14  8
4  15  8
5  16  8
5  22  8
6  21  8
6  22  8

$$$$
5174
  -OEChem-11021605012D

 30 32  0     0  0  0  0  0  0999 V2000
    2.2788    0.9139    0.0000 O   0  0  0  0  0  0  0  0  0  0  0  0
    3.5878    1.8649    0.0000 N   0  0  0  0  0  0  0  0  0  0  0  0
    3.0878   -2.6739    0.0000 N   0  0  0  0  0  0  0  0  0  0  0  0
    3.8968    0.9139    0.0000 C   0  0  0  0  0  0  0  0  0  0  0  0
    3.0878    0.3261    0.0000 C   0  0  0  0  0  0  0  0  0  0  0  0
    4.8479    0.6048    0.0000 C   0  0  0  0  0  0  0  0  0  0  0  0
    3.0878   -0.6739    0.0000 C   0  0  0  0  0  0  0  0  0  0  0  0
    2.5878    1.8649    0.0000 C   0  0  0  0  0  0  0  0  0  0  0  0
    5.0558   -0.3733    0.0000 C   0  0  0  0  0  0  0  0  0  0  0  0
    5.5910    1.2740    0.0000 C   0  0  0  0  0  0  0  0  0  0  0  0
    3.9538   -1.1739    0.0000 C   0  0  0  0  0  0  0  0  0  0  0  0
    2.2218   -1.1739    0.0000 C   0  0  0  0  0  0  0  0  0  0  0  0
    2.0000    2.6739    0.0000 C   0  0  0  0  0  0  0  0  0  0  0  0
    6.0068   -0.6823    0.0000 C   0  0  0  0  0  0  0  0  0  0  0  0
    6.5421    0.9650    0.0000 C   0  0  0  0  0  0  0  0  0  0  0  0
    6.7500   -0.0132    0.0000 C   0  0  0  0  0  0  0  0  0  0  0  0
    3.9538   -2.1739    0.0000 C   0  0  0  0  0  0  0  0  0  0  0  0
    2.2218   -2.1739    0.0000 C   0  0  0  0  0  0  0  0  0  0  0  0
    4.5950   -0.7882    0.0000 H   0  0  0  0  0  0  0  0  0  0  0  0
    5.4621    1.8804    0.0000 H   0  0  0  0  0  0  0  0  0  0  0  0
    4.4908   -0.8639    0.0000 H   0  0  0  0  0  0  0  0  0  0  0  0
    1.6848   -0.8639    0.0000 H   0  0  0  0  0  0  0  0  0  0  0  0
    2.5016    3.0384    0.0000 H   0  0  0  0  0  0  0  0  0  0  0  0
    1.6356    3.1755    0.0000 H   0  0  0  0  0  0  0  0  0  0  0  0
    1.4984    2.3095    0.0000 H   0  0  0  0  0  0  0  0  0  0  0  0
    6.1357   -1.2888    0.0000 H   0  0  0  0  0  0  0  0  0  0  0  0
    7.0028    1.3798    0.0000 H   0  0  0  0  0  0  0  0  0  0  0  0
    7.3396   -0.2048    0.0000 H   0  0  0  0  0  0  0  0  0  0  0  0
    4.4908   -2.4839    0.0000 H   0  0  0  0  0  0  0  0  0  0  0  0
    1.6848   -2.4839    0.0000 H   0  0  0  0  0  0  0  0  0  0  0  0
  1  5  1  0  0  0  0
  1  8  1  0  0  0  0
  2  4  1  0  0  0  0
  2  8  2  0  0  0  0
  3 17  2  0  0  0  0
  3 18  1  0  0  0  0
  4  5  2  0  0  0  0
  4  6  1  0  0  0  0
  5  7  1  0  0  0  0
  6  9  2  0  0  0  0
  6 10  1  0  0  0  0
  7 11  2  0  0  0  0
  7 12  1  0  0  0  0
  8 13  1  0  0  0  0
  9 14  1  0  0  0  0
  9 19  1  0  0  0  0
 10 15  2  0  0  0  0
 10 20  1  0  0  0  0
 11 17  1  0  0  0  0
 11 21  1  0  0  0  0
 12 18  2  0  0  0  0
 12 22  1  0  0  0  0
 13 23  1  0  0  0  0
 13 24  1  0  0  0  0
 13 25  1  0  0  0  0
 14 16  2  0  0  0  0
 14 26  1  0  0  0  0
 15 16  1  0  0  0  0
 15 27  1  0  0  0  0
 16 28  1  0  0  0  0
 17 29  1  0  0  0  0
 18 30  1  0  0  0  0
M  END
> <PUBCHEM_COMPOUND_CID>
5174

> <PUBCHEM_COMPOUND_CANONICALIZED>
1

> <PUBCHEM_CACTVS_COMPLEXITY>
259

> <PUBCHEM_CACTVS_HBOND_ACCEPTOR>
3

> <PUBCHEM_CACTVS_HBOND_DONOR>
0

> <PUBCHEM_CACTVS_ROTATABLE_BOND>
2

> <PUBCHEM_CACTVS_SUBSKEYS>
AAADccBzIAAAAAAAAAAAAAAAAAAAAWAAAAA8QAAAAAAAAAAB8AAAHgAAAAAADAzBngQ+hJIIFECoA7V3VASCiCA/YiAI2CG9bNgOJvLEtbuPOSjkxAHY6Ye8yOCOAAAAAAAAAAAAAAAAAAAAAAAAAAAAAA==

> <PUBCHEM_IUPAC_OPENEYE_NAME>
2-methyl-4-phenyl-5-(4-pyridyl)oxazole

> <PUBCHEM_IUPAC_CAS_NAME>
2-methyl-4-phenyl-5-pyridin-4-yloxazole

> <PUBCHEM_IUPAC_NAME>
2-methyl-4-phenyl-5-pyridin-4-yl-1,3-oxazole

> <PUBCHEM_IUPAC_SYSTEMATIC_NAME>
2-methyl-4-phenyl-5-pyridin-4-yl-1,3-oxazole

> <PUBCHEM_IUPAC_TRADITIONAL_NAME>
2-methyl-4-phenyl-5-(4-pyridyl)oxazole

> <PUBCHEM_IUPAC_INCHI>
InChI=1S/C15H12N2O/c1-11-17-14(12-5-3-2-4-6-12)15(18-11)13-7-9-16-10-8-13/h2-10H,1H3

> <PUBCHEM_IUPAC_INCHIKEY>
BHWCZLOXTLWZAQ-UHFFFAOYSA-N

> <PUBCHEM_XLOGP3>
3.7

> <PUBCHEM_EXACT_MASS>
236.095

> <PUBCHEM_MOLECULAR_FORMULA>
C15H12N2O

> <PUBCHEM_MOLECULAR_WEIGHT>
236.274

> <PUBCHEM_OPENEYE_CAN_SMILES>
CC1=NC(=C(O1)C2=CC=NC=C2)C3=CC=CC=C3

> <PUBCHEM_OPENEYE_ISO_SMILES>
CC1=NC(=C(O1)C2=CC=NC=C2)C3=CC=CC=C3

> <PUBCHEM_CACTVS_TPSA>
38.9

> <PUBCHEM_MONOISOTOPIC_WEIGHT>
236.095

> <PUBCHEM_TOTAL_CHARGE>
0

> <PUBCHEM_HEAVY_ATOM_COUNT>
18

> <PUBCHEM_ATOM_DEF_STEREO_COUNT>
0

> <PUBCHEM_ATOM_UDEF_STEREO_COUNT>
0

> <PUBCHEM_BOND_DEF_STEREO_COUNT>
0

> <PUBCHEM_BOND_UDEF_STEREO_COUNT>
0

> <PUBCHEM_ISOTOPIC_ATOM_COUNT>
0

> <PUBCHEM_COMPONENT_COUNT>
1

> <PUBCHEM_CACTVS_TAUTO_COUNT>
1

> <PUBCHEM_COORDINATE_TYPE>
1
5
255

> <PUBCHEM_BONDANNOTATIONS>
1  5  8
1  8  8
10  15  8
11  17  8
12  18  8
14  16  8
15  16  8
2  4  8
2  8  8
3  17  8
3  18  8
4  5  8
6  10  8
6  9  8
7  11  8
7  12  8
9  14  8

$$$$
5312137
  -OEChem-11021605012D

 47 50  0     0  0  0  0  0  0999 V2000
    3.7320   -0.0200    0.0000 S   0  0  0  0  0  0  0  0  0  0  0  0
    8.8600   -1.0200    0.0000 O   0  0  0  0  0  0  0  0  0  0  0  0
    3.2320   -0.8860    0.0000 O   0  0  0  0  0  0  0  0  0  0  0  0
    4.2320    0.8460    0.0000 O   0  0  0  0  0  0  0  0  0  0  0  0
    8.9706    1.8493    0.0000 N   0  0  0  0  0  0  0  0  0  0  0  0
    7.2764   -1.8247    0.0000 N   0  0  0  0  0  0  0  0  0  0  0  0
    2.8660    0.4800    0.0000 N   0  0  0  0  0  0  0  0  0  0  0  0
    9.9594    1.7462    0.0000 C   0  0  0  0  0  0  0  0  0  0  0  0
   10.1656    0.7677    0.0000 C   0  0  0  0  0  0  0  0  0  0  0  0
   10.7037    2.4140    0.0000 C   0  0  0  0  0  0  0  0  0  0  0  0
   11.1161    0.4570    0.0000 C   0  0  0  0  0  0  0  0  0  0  0  0
   11.6542    2.1034    0.0000 C   0  0  0  0  0  0  0  0  0  0  0  0
   11.8604    1.1249    0.0000 C   0  0  0  0  0  0  0  0  0  0  0  0
    8.5655    0.9415    0.0000 C   0  0  0  0  0  0  0  0  0  0  0  0
    9.3025    0.2744    0.0000 C   0  0  0  0  0  0  0  0  0  0  0  0
    7.5870    0.7353    0.0000 C   0  0  0  0  0  0  0  0  0  0  0  0
    7.2764   -0.2153    0.0000 C   0  0  0  0  0  0  0  0  0  0  0  0
    6.3301   -0.5200    0.0000 C   0  0  0  0  0  0  0  0  0  0  0  0
    6.3301   -1.5200    0.0000 C   0  0  0  0  0  0  0  0  0  0  0  0
    4.5981   -0.5200    0.0000 C   0  0  0  0  0  0  0  0  0  0  0  0
    5.4641   -0.0200    0.0000 C   0  0  0  0  0  0  0  0  0  0  0  0
    7.8600   -1.0200    0.0000 C   0  0  0  0  0  0  0  0  0  0  0  0
    5.4641   -2.0200    0.0000 C   0  0  0  0  0  0  0  0  0  0  0  0
    4.5981   -1.5200    0.0000 C   0  0  0  0  0  0  0  0  0  0  0  0
    2.0000   -0.0200    0.0000 C   0  0  0  0  0  0  0  0  0  0  0  0
    2.8660    1.4800    0.0000 C   0  0  0  0  0  0  0  0  0  0  0  0
   10.9957    2.9610    0.0000 H   0  0  0  0  0  0  0  0  0  0  0  0
   10.2157    2.7966    0.0000 H   0  0  0  0  0  0  0  0  0  0  0  0
   10.8241   -0.0899    0.0000 H   0  0  0  0  0  0  0  0  0  0  0  0
   11.6040    0.0745    0.0000 H   0  0  0  0  0  0  0  0  0  0  0  0
   12.2738    2.1239    0.0000 H   0  0  0  0  0  0  0  0  0  0  0  0
   11.7415    2.7172    0.0000 H   0  0  0  0  0  0  0  0  0  0  0  0
   12.1880    0.5985    0.0000 H   0  0  0  0  0  0  0  0  0  0  0  0
   12.4356    1.3561    0.0000 H   0  0  0  0  0  0  0  0  0  0  0  0
    8.6606    2.3862    0.0000 H   0  0  0  0  0  0  0  0  0  0  0  0
    9.2356   -0.3420    0.0000 H   0  0  0  0  0  0  0  0  0  0  0  0
    7.1730    1.1967    0.0000 H   0  0  0  0  0  0  0  0  0  0  0  0
    5.4641    0.6000    0.0000 H   0  0  0  0  0  0  0  0  0  0  0  0
    7.4690   -2.4140    0.0000 H   0  0  0  0  0  0  0  0  0  0  0  0
    5.4641   -2.6400    0.0000 H   0  0  0  0  0  0  0  0  0  0  0  0
    4.0611   -1.8300    0.0000 H   0  0  0  0  0  0  0  0  0  0  0  0
    1.6900    0.5169    0.0000 H   0  0  0  0  0  0  0  0  0  0  0  0
    1.4631   -0.3300    0.0000 H   0  0  0  0  0  0  0  0  0  0  0  0
    2.3100   -0.5569    0.0000 H   0  0  0  0  0  0  0  0  0  0  0  0
    3.4860    1.4800    0.0000 H   0  0  0  0  0  0  0  0  0  0  0  0
    2.8660    2.1000    0.0000 H   0  0  0  0  0  0  0  0  0  0  0  0
    2.2460    1.4800    0.0000 H   0  0  0  0  0  0  0  0  0  0  0  0
  1  3  2  0  0  0  0
  1  4  2  0  0  0  0
  1  7  1  0  0  0  0
  1 20  1  0  0  0  0
  2 22  2  0  0  0  0
  5  8  1  0  0  0  0
  5 14  1  0  0  0  0
  5 35  1  0  0  0  0
  6 19  1  0  0  0  0
  6 22  1  0  0  0  0
  6 39  1  0  0  0  0
  7 25  1  0  0  0  0
  7 26  1  0  0  0  0
  8  9  2  0  0  0  0
  8 10  1  0  0  0  0
  9 11  1  0  0  0  0
  9 15  1  0  0  0  0
 10 12  1  0  0  0  0
 10 27  1  0  0  0  0
 10 28  1  0  0  0  0
 11 13  1  0  0  0  0
 11 29  1  0  0  0  0
 11 30  1  0  0  0  0
 12 13  1  0  0  0  0
 12 31  1  0  0  0  0
 12 32  1  0  0  0  0
 13 33  1  0  0  0  0
 13 34  1  0  0  0  0
 14 15  2  0  0  0  0
 14 16  1  0  0  0  0
 15 36  1  0  0  0  0
 16 17  2  0  0  0  0
 16 37  1  0  0  0  0
 17 18  1  0  0  0  0
 17 22  1  0  0  0  0
 18 19  2  0  0  0  0
 18 21  1  0  0  0  0
 19 23  1  0  0  0  0
 20 21  2  0  0  0  0
 20 24  1  0  0  0  0
 21 38  1  0  0  0  0
 23 24  2  0  0  0  0
 23 40  1  0  0  0  0
 24 41  1  0  0  0  0
 25 42  1  0  0  0  0
 25 43  1  0  0  0  0
 25 44  1  0  0  0  0
 26 45  1  0  0  0  0
 26 46  1  0  0  0  0
 26 47  1  0  0  0  0
M  END
> <PUBCHEM_COMPOUND_CID>
5312137

> <PUBCHEM_COMPOUND_CANONICALIZED>
1

> <PUBCHEM_CACTVS_COMPLEXITY>
697

> <PUBCHEM_CACTVS_HBOND_ACCEPTOR>
4

> <PUBCHEM_CACTVS_HBOND_DONOR>
2

> <PUBCHEM_CACTVS_ROTATABLE_BOND>
3

> <PUBCHEM_CACTVS_SUBSKEYS>
AAADceB7MABAAAAAAAAAAAAAAAAAAWLAAAAwYAAAAAAAAFgBwAAAHgQQQAAADAiB3gQywZLJkAKoAyVyVHDCgDAhAiAImTk4ZNgIIPLAlZGEIAhglADIyYcciICOAAQAgAACAAAACAEAAAQAAAAAAAAAAA==

> <PUBCHEM_IUPAC_OPENEYE_NAME>
(3Z)-N,N-dimethyl-2-oxo-3-(4,5,6,7-tetrahydro-1H-indol-2-ylmethylene)indoline-5-sulfonamide

> <PUBCHEM_IUPAC_CAS_NAME>
(3Z)-N,N-dimethyl-2-oxo-3-(4,5,6,7-tetrahydro-1H-indol-2-ylmethylidene)-1H-indole-5-sulfonamide

> <PUBCHEM_IUPAC_NAME>
(3Z)-N,N-dimethyl-2-oxo-3-(4,5,6,7-tetrahydro-1H-indol-2-ylmethylidene)-1H-indole-5-sulfonamide

> <PUBCHEM_IUPAC_SYSTEMATIC_NAME>
(3Z)-N,N-dimethyl-2-oxidanylidene-3-(4,5,6,7-tetrahydro-1H-indol-2-ylmethylidene)-1H-indole-5-sulfonamide

> <PUBCHEM_IUPAC_TRADITIONAL_NAME>
(3Z)-2-keto-N,N-dimethyl-3-(4,5,6,7-tetrahydro-1H-indol-2-ylmethylene)indoline-5-sulfonamide

> <PUBCHEM_IUPAC_INCHI>
InChI=1S/C19H21N3O3S/c1-22(2)26(24,25)14-7-8-18-15(11-14)16(19(23)21-18)10-13-9-12-5-3-4-6-17(12)20-13/h7-11,20H,3-6H2,1-2H3,(H,21,23)/b16-10-

> <PUBCHEM_IUPAC_INCHIKEY>
LOGJQOUIVKBFGH-YBEGLDIGSA-N

> <PUBCHEM_XLOGP3_AA>
2.1

> <PUBCHEM_EXACT_MASS>
371.13

> <PUBCHEM_MOLECULAR_FORMULA>
C19H21N3O3S

> <PUBCHEM_MOLECULAR_WEIGHT>
371.455

> <PUBCHEM_OPENEYE_CAN_SMILES>
CN(C)S(=O)(=O)C1=CC2=C(C=C1)NC(=O)C2=CC3=CC4=C(N3)CCCC4

> <PUBCHEM_OPENEYE_ISO_SMILES>
CN(C)S(=O)(=O)C1=CC\2=C(C=C1)NC(=O)/C2=C\C3=CC4=C(N3)CCCC4

> <PUBCHEM_CACTVS_TPSA>
90.6

> <PUBCHEM_MONOISOTOPIC_WEIGHT>
371.13

> <PUBCHEM_TOTAL_CHARGE>
0

> <PUBCHEM_HEAVY_ATOM_COUNT>
26

> <PUBCHEM_ATOM_DEF_STEREO_COUNT>
0

> <PUBCHEM_ATOM_UDEF_STEREO_COUNT>
0

> <PUBCHEM_BOND_DEF_STEREO_COUNT>
1

> <PUBCHEM_BOND_UDEF_STEREO_COUNT>
0

> <PUBCHEM_ISOTOPIC_ATOM_COUNT>
0

> <PUBCHEM_COMPONENT_COUNT>
1

> <PUBCHEM_CACTVS_TAUTO_COUNT>
10

> <PUBCHEM_COORDINATE_TYPE>
1
5
255

> <PUBCHEM_BONDANNOTATIONS>
14  15  8
18  19  8
18  21  8
19  23  8
20  21  8
20  24  8
23  24  8
5  14  8
5  8  8
8  9  8
9  15  8

$$$$
6605258
  -OEChem-11021605012D

 53 55  0     1  0  0  0  0  0999 V2000
    8.0622   -0.2500    0.0000 Cl  0  0  0  0  0  0  0  0  0  0  0  0
    7.6962    1.1160    0.0000 Cl  0  0  0  0  0  0  0  0  0  0  0  0
    6.6962   -0.6160    0.0000 Cl  0  0  0  0  0  0  0  0  0  0  0  0
    6.3301   -1.2500    0.0000 S   0  0  0  0  0  0  0  0  0  0  0  0
    4.5981   -5.2500    0.0000 F   0  0  0  0  0  0  0  0  0  0  0  0
    8.0622    1.7500    0.0000 O   0  0  0  0  0  0  0  0  0  0  0  0
    2.0000   -3.7500    0.0000 O   0  5  0  0  0  0  0  0  0  0  0  0
    2.8660   -5.2500    0.0000 O   0  0  0  0  0  0  0  0  0  0  0  0
    6.3301    1.7500    0.0000 N   0  0  0  0  0  0  0  0  0  0  0  0
    5.4641    0.2500    0.0000 N   0  0  0  0  0  0  0  0  0  0  0  0
    4.5981   -1.2500    0.0000 N   0  0  0  0  0  0  0  0  0  0  0  0
    2.8660   -4.2500    0.0000 N   0  3  0  0  0  0  0  0  0  0  0  0
    7.1962    3.2500    0.0000 C   0  0  0  0  0  0  0  0  0  0  0  0
    8.0622    3.7500    0.0000 C   0  0  0  0  0  0  0  0  0  0  0  0
    6.3301    3.7500    0.0000 C   0  0  0  0  0  0  0  0  0  0  0  0
    7.1962    2.2500    0.0000 C   0  0  0  0  0  0  0  0  0  0  0  0
    6.3301    0.7500    0.0000 C   0  0  3  0  0  0  0  0  0  0  0  0
    8.9282    3.2500    0.0000 C   0  0  0  0  0  0  0  0  0  0  0  0
    6.3301    4.7500    0.0000 C   0  0  0  0  0  0  0  0  0  0  0  0
    8.0622    4.7500    0.0000 C   0  0  0  0  0  0  0  0  0  0  0  0
    5.4641    3.2500    0.0000 C   0  0  0  0  0  0  0  0  0  0  0  0
    7.1962    0.2500    0.0000 C   0  0  0  0  0  0  0  0  0  0  0  0
    9.7942    3.7500    0.0000 C   0  0  0  0  0  0  0  0  0  0  0  0
    5.4641    5.2500    0.0000 C   0  0  0  0  0  0  0  0  0  0  0  0
    8.9282    5.2500    0.0000 C   0  0  0  0  0  0  0  0  0  0  0  0
    4.5981    3.7500    0.0000 C   0  0  0  0  0  0  0  0  0  0  0  0
    5.4641   -0.7500    0.0000 C   0  0  0  0  0  0  0  0  0  0  0  0
    9.7942    4.7500    0.0000 C   0  0  0  0  0  0  0  0  0  0  0  0
    4.5981    4.7500    0.0000 C   0  0  0  0  0  0  0  0  0  0  0  0
    4.5981   -2.2500    0.0000 C   0  0  0  0  0  0  0  0  0  0  0  0
    3.7320   -2.7500    0.0000 C   0  0  0  0  0  0  0  0  0  0  0  0
    5.4641   -2.7500    0.0000 C   0  0  0  0  0  0  0  0  0  0  0  0
    3.7320   -3.7500    0.0000 C   0  0  0  0  0  0  0  0  0  0  0  0
    5.4641   -3.7500    0.0000 C   0  0  0  0  0  0  0  0  0  0  0  0
    4.5981   -4.2500    0.0000 C   0  0  0  0  0  0  0  0  0  0  0  0
    6.6592    2.9400    0.0000 H   0  0  0  0  0  0  0  0  0  0  0  0
    7.0662    1.1750    0.0000 H   0  0  0  0  0  0  0  0  0  0  0  0
    5.7932    2.0600    0.0000 H   0  0  0  0  0  0  0  0  0  0  0  0
    8.9282    2.6300    0.0000 H   0  0  0  0  0  0  0  0  0  0  0  0
    6.8671    5.0600    0.0000 H   0  0  0  0  0  0  0  0  0  0  0  0
    7.5252    5.0600    0.0000 H   0  0  0  0  0  0  0  0  0  0  0  0
    5.4641    2.6300    0.0000 H   0  0  0  0  0  0  0  0  0  0  0  0
    4.9272    0.5600    0.0000 H   0  0  0  0  0  0  0  0  0  0  0  0
   10.3312    3.4400    0.0000 H   0  0  0  0  0  0  0  0  0  0  0  0
    5.4641    5.8700    0.0000 H   0  0  0  0  0  0  0  0  0  0  0  0
    8.9282    5.8700    0.0000 H   0  0  0  0  0  0  0  0  0  0  0  0
    4.0611    3.4400    0.0000 H   0  0  0  0  0  0  0  0  0  0  0  0
   10.3312    5.0600    0.0000 H   0  0  0  0  0  0  0  0  0  0  0  0
    4.0611    5.0600    0.0000 H   0  0  0  0  0  0  0  0  0  0  0  0
    4.0611   -0.9400    0.0000 H   0  0  0  0  0  0  0  0  0  0  0  0
    3.1951   -2.4400    0.0000 H   0  0  0  0  0  0  0  0  0  0  0  0
    6.0010   -2.4400    0.0000 H   0  0  0  0  0  0  0  0  0  0  0  0
    6.0010   -4.0600    0.0000 H   0  0  0  0  0  0  0  0  0  0  0  0
  1 22  1  0  0  0  0
  2 22  1  0  0  0  0
  3 22  1  0  0  0  0
  4 27  2  0  0  0  0
  5 35  1  0  0  0  0
  6 16  2  0  0  0  0
  7 12  1  0  0  0  0
  8 12  2  0  0  0  0
  9 16  1  0  0  0  0
  9 17  1  0  0  0  0
  9 38  1  0  0  0  0
 10 17  1  0  0  0  0
 10 27  1  0  0  0  0
 10 43  1  0  0  0  0
 11 27  1  0  0  0  0
 11 30  1  0  0  0  0
 11 50  1  0  0  0  0
 12 33  1  0  0  0  0
 13 14  1  0  0  0  0
 13 15  1  0  0  0  0
 13 16  1  0  0  0  0
 13 36  1  0  0  0  0
 14 18  2  0  0  0  0
 14 20  1  0  0  0  0
 15 19  2  0  0  0  0
 15 21  1  0  0  0  0
 17 22  1  0  0  0  0
 17 37  1  0  0  0  0
 18 23  1  0  0  0  0
 18 39  1  0  0  0  0
 19 24  1  0  0  0  0
 19 40  1  0  0  0  0
 20 25  2  0  0  0  0
 20 41  1  0  0  0  0
 21 26  2  0  0  0  0
 21 42  1  0  0  0  0
 23 28  2  0  0  0  0
 23 44  1  0  0  0  0
 24 29  2  0  0  0  0
 24 45  1  0  0  0  0
 25 28  1  0  0  0  0
 25 46  1  0  0  0  0
 26 29  1  0  0  0  0
 26 47  1  0  0  0  0
 28 48  1  0  0  0  0
 29 49  1  0  0  0  0
 30 31  2  0  0  0  0
 30 32  1  0  0  0  0
 31 33  1  0  0  0  0
 31 51  1  0  0  0  0
 32 34  2  0  0  0  0
 32 52  1  0  0  0  0
 33 35  2  0  0  0  0
 34 35  1  0  0  0  0
 34 53  1  0  0  0  0
M  CHG  2   7  -1  12   1
M  END
> <PUBCHEM_COMPOUND_CID>
6605258

> <PUBCHEM_COMPOUND_CANONICALIZED>
1

> <PUBCHEM_CACTVS_COMPLEXITY>
725

> <PUBCHEM_CACTVS_HBOND_ACCEPTOR>
5

> <PUBCHEM_CACTVS_HBOND_DONOR>
3

> <PUBCHEM_CACTVS_ROTATABLE_BOND>
6

> <PUBCHEM_CACTVS_SUBSKEYS>
AAADceB7sQBGAAAAAAAAAAAAAAAAAAAAAAAwYMAAAAAAAAABUAAAHwYUAAAADQrBmIwxwILQQACNAiVSUwCCAAAhAgkoiIEIZIqIIDLA1dHEIAholwLIyCcYiMCOgAAAAAQAAAAAAAAACAAAAAAAAAAAAA==

> <PUBCHEM_IUPAC_OPENEYE_NAME>
2,2-diphenyl-N-[2,2,2-trichloro-1-[(4-fluoro-3-nitro-phenyl)carbamothioylamino]ethyl]acetamide

> <PUBCHEM_IUPAC_CAS_NAME>
2,2-diphenyl-N-[2,2,2-trichloro-1-[[(4-fluoro-3-nitroanilino)-sulfanylidenemethyl]amino]ethyl]acetamide

> <PUBCHEM_IUPAC_NAME>
2,2-diphenyl-N-[2,2,2-trichloro-1-[(4-fluoro-3-nitrophenyl)carbamothioylamino]ethyl]acetamide

> <PUBCHEM_IUPAC_SYSTEMATIC_NAME>
2,2-diphenyl-N-[2,2,2-tris(chloranyl)-1-[(4-fluoranyl-3-nitro-phenyl)carbamothioylamino]ethyl]ethanamide

> <PUBCHEM_IUPAC_TRADITIONAL_NAME>
2,2-diphenyl-N-[2,2,2-trichloro-1-[(4-fluoro-3-nitro-phenyl)thiocarbamoylamino]ethyl]acetamide

> <PUBCHEM_IUPAC_INCHI>
InChI=1S/C23H18Cl3FN4O3S/c24-23(25,26)21(30-22(35)28-16-11-12-17(27)18(13-16)31(33)34)29-20(32)19(14-7-3-1-4-8-14)15-9-5-2-6-10-15/h1-13,19,21H,(H,29,32)(H2,28,30,35)

> <PUBCHEM_IUPAC_INCHIKEY>
HLCDNLNLQNYZTK-UHFFFAOYSA-N

> <PUBCHEM_XLOGP3_AA>
6.1

> <PUBCHEM_EXACT_MASS>
554.015

> <PUBCHEM_MOLECULAR_FORMULA>
C23H18Cl3FN4O3S

> <PUBCHEM_MOLECULAR_WEIGHT>
555.83

> <PUBCHEM_OPENEYE_CAN_SMILES>
C1=CC=C(C=C1)C(C2=CC=CC=C2)C(=O)NC(C(Cl)(Cl)Cl)NC(=S)NC3=CC(=C(C=C3)F)[N+](=O)[O-]

> <PUBCHEM_OPENEYE_ISO_SMILES>
C1=CC=C(C=C1)C(C2=CC=CC=C2)C(=O)NC(C(Cl)(Cl)Cl)NC(=S)NC3=CC(=C(C=C3)F)[N+](=O)[O-]

> <PUBCHEM_CACTVS_TPSA>
131

> <PUBCHEM_MONOISOTOPIC_WEIGHT>
554.015

> <PUBCHEM_TOTAL_CHARGE>
0

> <PUBCHEM_HEAVY_ATOM_COUNT>
35

> <PUBCHEM_ATOM_DEF_STEREO_COUNT>
0

> <PUBCHEM_ATOM_UDEF_STEREO_COUNT>
1

> <PUBCHEM_BOND_DEF_STEREO_COUNT>
0

> <PUBCHEM_BOND_UDEF_STEREO_COUNT>
0

> <PUBCHEM_ISOTOPIC_ATOM_COUNT>
0

> <PUBCHEM_COMPONENT_COUNT>
1

> <PUBCHEM_CACTVS_TAUTO_COUNT>
6

> <PUBCHEM_COORDINATE_TYPE>
1
5
255

> <PUBCHEM_BONDANNOTATIONS>
14  18  8
14  20  8
15  19  8
15  21  8
17  37  3
18  23  8
19  24  8
20  25  8
21  26  8
23  28  8
24  29  8
25  28  8
26  29  8
30  31  8
30  32  8
31  33  8
32  34  8
33  35  8
34  35  8

$$$$
5312122
  -OEChem-11021605012D

 63 65  0     1  0  0  0  0  0999 V2000
    2.0000   -3.2500    0.0000 Cl  0  0  0  0  0  0  0  0  0  0  0  0
   11.5263    0.2500    0.0000 S   0  0  0  0  0  0  0  0  0  0  0  0
   11.0263    1.1160    0.0000 O   0  0  0  0  0  0  0  0  0  0  0  0
   12.0263   -0.6160    0.0000 O   0  0  0  0  0  0  0  0  0  0  0  0
    8.9282    1.7500    0.0000 O   0  0  0  0  0  0  0  0  0  0  0  0
   14.9904    2.2500    0.0000 O   0  0  0  0  0  0  0  0  0  0  0  0
   10.6603   -0.2500    0.0000 N   0  0  3  0  0  0  0  0  0  0  0  0
    8.0622   -1.7500    0.0000 N   0  0  3  0  0  0  0  0  0  0  0  0
   10.6603   -1.2500    0.0000 C   0  0  0  0  0  0  0  0  0  0  0  0
    9.7942   -1.7500    0.0000 C   0  0  0  0  0  0  0  0  0  0  0  0
    8.9282   -1.2500    0.0000 C   0  0  0  0  0  0  0  0  0  0  0  0
    9.7942    0.2500    0.0000 C   0  0  0  0  0  0  0  0  0  0  0  0
   12.3923    0.7500    0.0000 C   0  0  0  0  0  0  0  0  0  0  0  0
   11.5263   -1.7500    0.0000 C   0  0  0  0  0  0  0  0  0  0  0  0
    9.7942   -2.7500    0.0000 C   0  0  0  0  0  0  0  0  0  0  0  0
    7.1962   -1.2500    0.0000 C   0  0  0  0  0  0  0  0  0  0  0  0
    9.7942    1.2500    0.0000 C   0  0  0  0  0  0  0  0  0  0  0  0
   11.5263   -2.7500    0.0000 C   0  0  0  0  0  0  0  0  0  0  0  0
   10.6603   -3.2500    0.0000 C   0  0  0  0  0  0  0  0  0  0  0  0
    8.0622   -2.7500    0.0000 C   0  0  0  0  0  0  0  0  0  0  0  0
   13.2583    0.2500    0.0000 C   0  0  0  0  0  0  0  0  0  0  0  0
   12.3923    1.7500    0.0000 C   0  0  0  0  0  0  0  0  0  0  0  0
    6.3301   -1.7500    0.0000 C   0  0  0  0  0  0  0  0  0  0  0  0
   14.1244    0.7500    0.0000 C   0  0  0  0  0  0  0  0  0  0  0  0
   13.2583    2.2500    0.0000 C   0  0  0  0  0  0  0  0  0  0  0  0
   14.1244    1.7500    0.0000 C   0  0  0  0  0  0  0  0  0  0  0  0
    5.4641   -1.2500    0.0000 C   0  0  0  0  0  0  0  0  0  0  0  0
    4.5981   -1.7500    0.0000 C   0  0  0  0  0  0  0  0  0  0  0  0
    3.7320   -1.2500    0.0000 C   0  0  0  0  0  0  0  0  0  0  0  0
    4.5981   -2.7500    0.0000 C   0  0  0  0  0  0  0  0  0  0  0  0
   14.9904    3.2500    0.0000 C   0  0  0  0  0  0  0  0  0  0  0  0
    2.8660   -1.7500    0.0000 C   0  0  0  0  0  0  0  0  0  0  0  0
    3.7320   -3.2500    0.0000 C   0  0  0  0  0  0  0  0  0  0  0  0
    2.8660   -2.7500    0.0000 C   0  0  0  0  0  0  0  0  0  0  0  0
    9.3267   -0.7751    0.0000 H   0  0  0  0  0  0  0  0  0  0  0  0
    8.5297   -0.7751    0.0000 H   0  0  0  0  0  0  0  0  0  0  0  0
    9.1836    0.3577    0.0000 H   0  0  0  0  0  0  0  0  0  0  0  0
    9.5822   -0.3326    0.0000 H   0  0  0  0  0  0  0  0  0  0  0  0
   12.0632   -1.4400    0.0000 H   0  0  0  0  0  0  0  0  0  0  0  0
    9.2573   -3.0600    0.0000 H   0  0  0  0  0  0  0  0  0  0  0  0
    7.5947   -0.7751    0.0000 H   0  0  0  0  0  0  0  0  0  0  0  0
    6.7976   -0.7751    0.0000 H   0  0  0  0  0  0  0  0  0  0  0  0
   10.4048    1.1423    0.0000 H   0  0  0  0  0  0  0  0  0  0  0  0
   10.0063    1.8326    0.0000 H   0  0  0  0  0  0  0  0  0  0  0  0
   12.0632   -3.0600    0.0000 H   0  0  0  0  0  0  0  0  0  0  0  0
   10.6603   -3.8700    0.0000 H   0  0  0  0  0  0  0  0  0  0  0  0
    7.4422   -2.7500    0.0000 H   0  0  0  0  0  0  0  0  0  0  0  0
    8.0622   -3.3700    0.0000 H   0  0  0  0  0  0  0  0  0  0  0  0
    8.6822   -2.7500    0.0000 H   0  0  0  0  0  0  0  0  0  0  0  0
   13.2583   -0.3700    0.0000 H   0  0  0  0  0  0  0  0  0  0  0  0
   11.8554    2.0600    0.0000 H   0  0  0  0  0  0  0  0  0  0  0  0
    6.3301   -2.3700    0.0000 H   0  0  0  0  0  0  0  0  0  0  0  0
   14.6613    0.4400    0.0000 H   0  0  0  0  0  0  0  0  0  0  0  0
   13.2583    2.8700    0.0000 H   0  0  0  0  0  0  0  0  0  0  0  0
    8.9282    2.3700    0.0000 H   0  0  0  0  0  0  0  0  0  0  0  0
    5.4641   -0.6300    0.0000 H   0  0  0  0  0  0  0  0  0  0  0  0
    3.7320   -0.6300    0.0000 H   0  0  0  0  0  0  0  0  0  0  0  0
    5.1350   -3.0600    0.0000 H   0  0  0  0  0  0  0  0  0  0  0  0
   15.6104    3.2500    0.0000 H   0  0  0  0  0  0  0  0  0  0  0  0
   14.9904    3.8700    0.0000 H   0  0  0  0  0  0  0  0  0  0  0  0
   14.3704    3.2500    0.0000 H   0  0  0  0  0  0  0  0  0  0  0  0
    2.3291   -1.4400    0.0000 H   0  0  0  0  0  0  0  0  0  0  0  0
    3.7320   -3.8700    0.0000 H   0  0  0  0  0  0  0  0  0  0  0  0
  1 34  1  0  0  0  0
  2  3  2  0  0  0  0
  2  4  2  0  0  0  0
  2  7  1  0  0  0  0
  2 13  1  0  0  0  0
  5 17  1  0  0  0  0
  5 55  1  0  0  0  0
  6 26  1  0  0  0  0
  6 31  1  0  0  0  0
  7  9  1  0  0  0  0
  7 12  1  0  0  0  0
  8 11  1  0  0  0  0
  8 16  1  0  0  0  0
  8 20  1  0  0  0  0
  9 10  1  0  0  0  0
  9 14  2  0  0  0  0
 10 11  1  0  0  0  0
 10 15  2  0  0  0  0
 11 35  1  0  0  0  0
 11 36  1  0  0  0  0
 12 17  1  0  0  0  0
 12 37  1  0  0  0  0
 12 38  1  0  0  0  0
 13 21  2  0  0  0  0
 13 22  1  0  0  0  0
 14 18  1  0  0  0  0
 14 39  1  0  0  0  0
 15 19  1  0  0  0  0
 15 40  1  0  0  0  0
 16 23  1  0  0  0  0
 16 41  1  0  0  0  0
 16 42  1  0  0  0  0
 17 43  1  0  0  0  0
 17 44  1  0  0  0  0
 18 19  2  0  0  0  0
 18 45  1  0  0  0  0
 19 46  1  0  0  0  0
 20 47  1  0  0  0  0
 20 48  1  0  0  0  0
 20 49  1  0  0  0  0
 21 24  1  0  0  0  0
 21 50  1  0  0  0  0
 22 25  2  0  0  0  0
 22 51  1  0  0  0  0
 23 27  2  0  0  0  0
 23 52  1  0  0  0  0
 24 26  2  0  0  0  0
 24 53  1  0  0  0  0
 25 26  1  0  0  0  0
 25 54  1  0  0  0  0
 27 28  1  0  0  0  0
 27 56  1  0  0  0  0
 28 29  2  0  0  0  0
 28 30  1  0  0  0  0
 29 32  1  0  0  0  0
 29 57  1  0  0  0  0
 30 33  2  0  0  0  0
 30 58  1  0  0  0  0
 31 59  1  0  0  0  0
 31 60  1  0  0  0  0
 31 61  1  0  0  0  0
 32 34  2  0  0  0  0
 32 62  1  0  0  0  0
 33 34  1  0  0  0  0
 33 63  1  0  0  0  0
M  END
> <PUBCHEM_COMPOUND_CID>
5312122

> <PUBCHEM_COMPOUND_CANONICALIZED>
1

> <PUBCHEM_CACTVS_COMPLEXITY>
713

> <PUBCHEM_CACTVS_HBOND_ACCEPTOR>
6

> <PUBCHEM_CACTVS_HBOND_DONOR>
1

> <PUBCHEM_CACTVS_ROTATABLE_BOND>
11

> <PUBCHEM_CACTVS_SUBSKEYS>
AAADceB7OABEAAAAAAAAAAAAAAAAAAAAAAAwYMAAAAAAAAABUAAAHgYASAAADA7h2CYyx4MABgKAAiRCQHDCCBAhJwAIiBgObogONiLF85uEMChkwBHY6AeQwAAOBIAAAAACAAAJAAAAAAQAAAAAAAAAAA==

> <PUBCHEM_IUPAC_OPENEYE_NAME>
N-[2-[[[(E)-3-(4-chlorophenyl)allyl]-methyl-amino]methyl]phenyl]-N-(2-hydroxyethyl)-4-methoxy-benzenesulfonamide

> <PUBCHEM_IUPAC_CAS_NAME>
N-[2-[[[(E)-3-(4-chlorophenyl)prop-2-enyl]-methylamino]methyl]phenyl]-N-(2-hydroxyethyl)-4-methoxybenzenesulfonamide

> <PUBCHEM_IUPAC_NAME>
N-[2-[[[(E)-3-(4-chlorophenyl)prop-2-enyl]-methylamino]methyl]phenyl]-N-(2-hydroxyethyl)-4-methoxybenzenesulfonamide

> <PUBCHEM_IUPAC_SYSTEMATIC_NAME>
N-[2-[[[(E)-3-(4-chlorophenyl)prop-2-enyl]-methyl-amino]methyl]phenyl]-N-(2-hydroxyethyl)-4-methoxy-benzenesulfonamide

> <PUBCHEM_IUPAC_TRADITIONAL_NAME>
N-[2-[[[(E)-3-(4-chlorophenyl)allyl]-methyl-amino]methyl]phenyl]-N-(2-hydroxyethyl)-4-methoxy-benzenesulfonamide

> <PUBCHEM_IUPAC_INCHI>
InChI=1S/C26H29ClN2O4S/c1-28(17-5-6-21-9-11-23(27)12-10-21)20-22-7-3-4-8-26(22)29(18-19-30)34(31,32)25-15-13-24(33-2)14-16-25/h3-16,30H,17-20H2,1-2H3/b6-5+

> <PUBCHEM_IUPAC_INCHIKEY>
LLLQTDSSHZREGW-AATRIKPKSA-N

> <PUBCHEM_XLOGP3_AA>
4.5

> <PUBCHEM_EXACT_MASS>
500.154

> <PUBCHEM_MOLECULAR_FORMULA>
C26H29ClN2O4S

> <PUBCHEM_MOLECULAR_WEIGHT>
501.038

> <PUBCHEM_OPENEYE_CAN_SMILES>
CN(CC=CC1=CC=C(C=C1)Cl)CC2=CC=CC=C2N(CCO)S(=O)(=O)C3=CC=C(C=C3)OC

> <PUBCHEM_OPENEYE_ISO_SMILES>
CN(C/C=C/C1=CC=C(C=C1)Cl)CC2=CC=CC=C2N(CCO)S(=O)(=O)C3=CC=C(C=C3)OC

> <PUBCHEM_CACTVS_TPSA>
78.5

> <PUBCHEM_MONOISOTOPIC_WEIGHT>
500.154

> <PUBCHEM_TOTAL_CHARGE>
0

> <PUBCHEM_HEAVY_ATOM_COUNT>
34

> <PUBCHEM_ATOM_DEF_STEREO_COUNT>
0

> <PUBCHEM_ATOM_UDEF_STEREO_COUNT>
0

> <PUBCHEM_BOND_DEF_STEREO_COUNT>
1

> <PUBCHEM_BOND_UDEF_STEREO_COUNT>
0

> <PUBCHEM_ISOTOPIC_ATOM_COUNT>
0

> <PUBCHEM_COMPONENT_COUNT>
1

> <PUBCHEM_CACTVS_TAUTO_COUNT>
1

> <PUBCHEM_COORDINATE_TYPE>
1
5
255

> <PUBCHEM_BONDANNOTATIONS>
10  15  8
13  21  8
13  22  8
14  18  8
15  19  8
18  19  8
21  24  8
22  25  8
24  26  8
25  26  8
28  29  8
28  30  8
29  32  8
30  33  8
32  34  8
33  34  8
9  10  8
9  14  8

$$$$
1048845
  -OEChem-11021605012D

 45 47  0     0  0  0  0  0  0999 V2000
    4.6783   -0.6171    0.0000 S   0  0  0  0  0  0  0  0  0  0  0  0
    5.9674    2.1491    0.0000 O   0  0  0  0  0  0  0  0  0  0  0  0
    6.2619   -1.5444    0.0000 O   0  0  0  0  0  0  0  0  0  0  0  0
    9.7619   -2.4105    0.0000 O   0  0  0  0  0  0  0  0  0  0  0  0
   10.7619   -0.6784    0.0000 O   0  0  0  0  0  0  0  0  0  0  0  0
    6.2619    0.1876    0.0000 N   0  0  0  0  0  0  0  0  0  0  0  0
    4.3211    2.6872    0.0000 N   0  0  0  0  0  0  0  0  0  0  0  0
    2.0000    0.6876    0.0000 C   0  0  0  0  0  0  0  0  0  0  0  0
    2.8660    1.1876    0.0000 C   0  0  0  0  0  0  0  0  0  0  0  0
    2.0000   -0.3124    0.0000 C   0  0  0  0  0  0  0  0  0  0  0  0
    3.7320    0.6876    0.0000 C   0  0  0  0  0  0  0  0  0  0  0  0
    2.8660   -0.8124    0.0000 C   0  0  0  0  0  0  0  0  0  0  0  0
    3.7320   -0.3124    0.0000 C   0  0  0  0  0  0  0  0  0  0  0  0
    4.6783    0.9923    0.0000 C   0  0  0  0  0  0  0  0  0  0  0  0
    5.2619    0.1876    0.0000 C   0  0  0  0  0  0  0  0  0  0  0  0
    4.9889    1.9429    0.0000 C   0  0  0  0  0  0  0  0  0  0  0  0
    6.7619   -0.6784    0.0000 C   0  0  0  0  0  0  0  0  0  0  0  0
    7.7619   -0.6784    0.0000 C   0  0  0  0  0  0  0  0  0  0  0  0
    8.2619   -1.5444    0.0000 C   0  0  0  0  0  0  0  0  0  0  0  0
    8.2619    0.1876    0.0000 C   0  0  0  0  0  0  0  0  0  0  0  0
    9.2619   -1.5444    0.0000 C   0  0  0  0  0  0  0  0  0  0  0  0
    9.7619   -0.6784    0.0000 C   0  0  0  0  0  0  0  0  0  0  0  0
    9.2619    0.1876    0.0000 C   0  0  0  0  0  0  0  0  0  0  0  0
    9.2619   -3.2765    0.0000 C   0  0  0  0  0  0  0  0  0  0  0  0
   11.2619    0.1876    0.0000 C   0  0  0  0  0  0  0  0  0  0  0  0
    1.7880    1.2702    0.0000 H   0  0  0  0  0  0  0  0  0  0  0  0
    1.3894    0.5800    0.0000 H   0  0  0  0  0  0  0  0  0  0  0  0
    3.2646    1.6626    0.0000 H   0  0  0  0  0  0  0  0  0  0  0  0
    2.4675    1.6626    0.0000 H   0  0  0  0  0  0  0  0  0  0  0  0
    1.3894   -0.2047    0.0000 H   0  0  0  0  0  0  0  0  0  0  0  0
    1.7880   -0.8950    0.0000 H   0  0  0  0  0  0  0  0  0  0  0  0
    2.4675   -1.2873    0.0000 H   0  0  0  0  0  0  0  0  0  0  0  0
    3.2646   -1.2873    0.0000 H   0  0  0  0  0  0  0  0  0  0  0  0
    6.5719    0.7245    0.0000 H   0  0  0  0  0  0  0  0  0  0  0  0
    4.5137    3.2765    0.0000 H   0  0  0  0  0  0  0  0  0  0  0  0
    3.7144    2.5593    0.0000 H   0  0  0  0  0  0  0  0  0  0  0  0
    7.9519   -2.0814    0.0000 H   0  0  0  0  0  0  0  0  0  0  0  0
    7.9519    0.7245    0.0000 H   0  0  0  0  0  0  0  0  0  0  0  0
    9.5719    0.7245    0.0000 H   0  0  0  0  0  0  0  0  0  0  0  0
    8.7249   -2.9665    0.0000 H   0  0  0  0  0  0  0  0  0  0  0  0
    8.9519   -3.8134    0.0000 H   0  0  0  0  0  0  0  0  0  0  0  0
    9.7988   -3.5865    0.0000 H   0  0  0  0  0  0  0  0  0  0  0  0
   11.7988   -0.1224    0.0000 H   0  0  0  0  0  0  0  0  0  0  0  0
   11.5719    0.7245    0.0000 H   0  0  0  0  0  0  0  0  0  0  0  0
   10.7249    0.4976    0.0000 H   0  0  0  0  0  0  0  0  0  0  0  0
  1 13  1  0  0  0  0
  1 15  1  0  0  0  0
  2 16  2  0  0  0  0
  3 17  2  0  0  0  0
  4 21  1  0  0  0  0
  4 24  1  0  0  0  0
  5 22  1  0  0  0  0
  5 25  1  0  0  0  0
  6 15  1  0  0  0  0
  6 17  1  0  0  0  0
  6 34  1  0  0  0  0
  7 16  1  0  0  0  0
  7 35  1  0  0  0  0
  7 36  1  0  0  0  0
  8  9  1  0  0  0  0
  8 10  1  0  0  0  0
  8 26  1  0  0  0  0
  8 27  1  0  0  0  0
  9 11  1  0  0  0  0
  9 28  1  0  0  0  0
  9 29  1  0  0  0  0
 10 12  1  0  0  0  0
 10 30  1  0  0  0  0
 10 31  1  0  0  0  0
 11 13  2  0  0  0  0
 11 14  1  0  0  0  0
 12 13  1  0  0  0  0
 12 32  1  0  0  0  0
 12 33  1  0  0  0  0
 14 15  2  0  0  0  0
 14 16  1  0  0  0  0
 17 18  1  0  0  0  0
 18 19  2  0  0  0  0
 18 20  1  0  0  0  0
 19 21  1  0  0  0  0
 19 37  1  0  0  0  0
 20 23  2  0  0  0  0
 20 38  1  0  0  0  0
 21 22  2  0  0  0  0
 22 23  1  0  0  0  0
 23 39  1  0  0  0  0
 24 40  1  0  0  0  0
 24 41  1  0  0  0  0
 24 42  1  0  0  0  0
 25 43  1  0  0  0  0
 25 44  1  0  0  0  0
 25 45  1  0  0  0  0
M  END
> <PUBCHEM_COMPOUND_CID>
1048845

> <PUBCHEM_COMPOUND_CANONICALIZED>
1

> <PUBCHEM_CACTVS_COMPLEXITY>
504

> <PUBCHEM_CACTVS_HBOND_ACCEPTOR>
5

> <PUBCHEM_CACTVS_HBOND_DONOR>
2

> <PUBCHEM_CACTVS_ROTATABLE_BOND>
5

> <PUBCHEM_CACTVS_SUBSKEYS>
AAADceB7OABAAAAAAAAAAAAAAAAAASAAAAAwYAAAAAAAAEgBwAAAHgQQAAAADASB2AIyh4LABAiMAiFSUACDCIBlKBkIiBEGzMgNJjrk9ZuEMapkxBHq6ce63NLOoAABAAAAQABAAAIAAAiAAAAAAAAAAA==

> <PUBCHEM_IUPAC_OPENEYE_NAME>
2-[(3,4-dimethoxybenzoyl)amino]-4,5,6,7-tetrahydrobenzothiophene-3-carboxamide

> <PUBCHEM_IUPAC_CAS_NAME>
2-[[(3,4-dimethoxyphenyl)-oxomethyl]amino]-4,5,6,7-tetrahydro-1-benzothiophene-3-carboxamide

> <PUBCHEM_IUPAC_NAME>
2-[(3,4-dimethoxybenzoyl)amino]-4,5,6,7-tetrahydro-1-benzothiophene-3-carboxamide

> <PUBCHEM_IUPAC_SYSTEMATIC_NAME>
2-[(3,4-dimethoxyphenyl)carbonylamino]-4,5,6,7-tetrahydro-1-benzothiophene-3-carboxamide

> <PUBCHEM_IUPAC_TRADITIONAL_NAME>
2-(veratroylamino)-4,5,6,7-tetrahydrobenzothiophene-3-carboxamide

> <PUBCHEM_IUPAC_INCHI>
InChI=1S/C18H20N2O4S/c1-23-12-8-7-10(9-13(12)24-2)17(22)20-18-15(16(19)21)11-5-3-4-6-14(11)25-18/h7-9H,3-6H2,1-2H3,(H2,19,21)(H,20,22)

> <PUBCHEM_IUPAC_INCHIKEY>
FSPQCTGGIANIJZ-UHFFFAOYSA-N

> <PUBCHEM_XLOGP3_AA>
3.4

> <PUBCHEM_EXACT_MASS>
360.114

> <PUBCHEM_MOLECULAR_FORMULA>
C18H20N2O4S

> <PUBCHEM_MOLECULAR_WEIGHT>
360.428

> <PUBCHEM_OPENEYE_CAN_SMILES>
COC1=C(C=C(C=C1)C(=O)NC2=C(C3=C(S2)CCCC3)C(=O)N)OC

> <PUBCHEM_OPENEYE_ISO_SMILES>
COC1=C(C=C(C=C1)C(=O)NC2=C(C3=C(S2)CCCC3)C(=O)N)OC

> <PUBCHEM_CACTVS_TPSA>
119

> <PUBCHEM_MONOISOTOPIC_WEIGHT>
360.114

> <PUBCHEM_TOTAL_CHARGE>
0

> <PUBCHEM_HEAVY_ATOM_COUNT>
25

> <PUBCHEM_ATOM_DEF_STEREO_COUNT>
0

> <PUBCHEM_ATOM_UDEF_STEREO_COUNT>
0

> <PUBCHEM_BOND_DEF_STEREO_COUNT>
0

> <PUBCHEM_BOND_UDEF_STEREO_COUNT>
0

> <PUBCHEM_ISOTOPIC_ATOM_COUNT>
0

> <PUBCHEM_COMPONENT_COUNT>
1

> <PUBCHEM_CACTVS_TAUTO_COUNT>
7

> <PUBCHEM_COORDINATE_TYPE>
1
5
255

> <PUBCHEM_BONDANNOTATIONS>
1  13  8
1  15  8
11  13  8
11  14  8
14  15  8
18  19  8
18  20  8
19  21  8
20  23  8
21  22  8
22  23  8

$$$$
11382492
  -OEChem-11021605012D

 46 48  0     0  0  0  0  0  0999 V2000
    8.9282    3.8100    0.0000 F   0  0  0  0  0  0  0  0  0  0  0  0
    4.5981   -1.6900    0.0000 O   0  0  0  0  0  0  0  0  0  0  0  0
    2.0000   -5.1900    0.0000 O   0  0  0  0  0  0  0  0  0  0  0  0
    5.4641   -3.1900    0.0000 N   0  0  0  0  0  0  0  0  0  0  0  0
    7.1962   -0.1900    0.0000 C   0  0  0  0  0  0  0  0  0  0  0  0
    6.3301   -0.6900    0.0000 C   0  0  0  0  0  0  0  0  0  0  0  0
    7.1962    0.8100    0.0000 C   0  0  0  0  0  0  0  0  0  0  0  0
    6.3301   -1.6900    0.0000 C   0  0  0  0  0  0  0  0  0  0  0  0
    8.0622    1.3100    0.0000 C   0  0  0  0  0  0  0  0  0  0  0  0
    6.3301    1.3100    0.0000 C   0  0  0  0  0  0  0  0  0  0  0  0
    7.1962    2.8100    0.0000 C   0  0  0  0  0  0  0  0  0  0  0  0
    8.0622    2.3100    0.0000 C   0  0  0  0  0  0  0  0  0  0  0  0
    6.3301    2.3100    0.0000 C   0  0  0  0  0  0  0  0  0  0  0  0
    5.4641   -2.1900    0.0000 C   0  0  0  0  0  0  0  0  0  0  0  0
    7.1962    3.8100    0.0000 C   0  0  0  0  0  0  0  0  0  0  0  0
    4.5981   -3.6900    0.0000 C   0  0  0  0  0  0  0  0  0  0  0  0
    8.0622    4.3100    0.0000 C   0  0  0  0  0  0  0  0  0  0  0  0
    6.3301    4.3100    0.0000 C   0  0  0  0  0  0  0  0  0  0  0  0
    8.0622    5.3100    0.0000 C   0  0  0  0  0  0  0  0  0  0  0  0
    6.3301    5.3100    0.0000 C   0  0  0  0  0  0  0  0  0  0  0  0
    3.7320   -3.1900    0.0000 C   0  0  0  0  0  0  0  0  0  0  0  0
    4.5981   -4.6900    0.0000 C   0  0  0  0  0  0  0  0  0  0  0  0
    7.1962    5.8100    0.0000 C   0  0  0  0  0  0  0  0  0  0  0  0
    2.8660   -3.6900    0.0000 C   0  0  0  0  0  0  0  0  0  0  0  0
    3.7320   -5.1900    0.0000 C   0  0  0  0  0  0  0  0  0  0  0  0
    2.8660   -4.6900    0.0000 C   0  0  0  0  0  0  0  0  0  0  0  0
    7.4082   -0.7726    0.0000 H   0  0  0  0  0  0  0  0  0  0  0  0
    7.8067   -0.0823    0.0000 H   0  0  0  0  0  0  0  0  0  0  0  0
    6.1181   -0.1074    0.0000 H   0  0  0  0  0  0  0  0  0  0  0  0
    5.7196   -0.7977    0.0000 H   0  0  0  0  0  0  0  0  0  0  0  0
    6.5422   -2.2726    0.0000 H   0  0  0  0  0  0  0  0  0  0  0  0
    6.9407   -1.5823    0.0000 H   0  0  0  0  0  0  0  0  0  0  0  0
    8.5991    1.0000    0.0000 H   0  0  0  0  0  0  0  0  0  0  0  0
    5.7932    1.0000    0.0000 H   0  0  0  0  0  0  0  0  0  0  0  0
    8.5991    2.6200    0.0000 H   0  0  0  0  0  0  0  0  0  0  0  0
    5.7932    2.6200    0.0000 H   0  0  0  0  0  0  0  0  0  0  0  0
    6.0010   -3.5000    0.0000 H   0  0  0  0  0  0  0  0  0  0  0  0
    5.7932    4.0000    0.0000 H   0  0  0  0  0  0  0  0  0  0  0  0
    8.5991    5.6200    0.0000 H   0  0  0  0  0  0  0  0  0  0  0  0
    5.7932    5.6200    0.0000 H   0  0  0  0  0  0  0  0  0  0  0  0
    3.7320   -2.5700    0.0000 H   0  0  0  0  0  0  0  0  0  0  0  0
    5.1350   -5.0000    0.0000 H   0  0  0  0  0  0  0  0  0  0  0  0
    7.1962    6.4300    0.0000 H   0  0  0  0  0  0  0  0  0  0  0  0
    2.3291   -3.3800    0.0000 H   0  0  0  0  0  0  0  0  0  0  0  0
    3.7320   -5.8100    0.0000 H   0  0  0  0  0  0  0  0  0  0  0  0
    2.0000   -5.8100    0.0000 H   0  0  0  0  0  0  0  0  0  0  0  0
  1 17  1  0  0  0  0
  2 14  2  0  0  0  0
  3 26  1  0  0  0  0
  3 46  1  0  0  0  0
  4 14  1  0  0  0  0
  4 16  1  0  0  0  0
  4 37  1  0  0  0  0
  5  6  1  0  0  0  0
  5  7  1  0  0  0  0
  5 27  1  0  0  0  0
  5 28  1  0  0  0  0
  6  8  1  0  0  0  0
  6 29  1  0  0  0  0
  6 30  1  0  0  0  0
  7  9  2  0  0  0  0
  7 10  1  0  0  0  0
  8 14  1  0  0  0  0
  8 31  1  0  0  0  0
  8 32  1  0  0  0  0
  9 12  1  0  0  0  0
  9 33  1  0  0  0  0
 10 13  2  0  0  0  0
 10 34  1  0  0  0  0
 11 12  2  0  0  0  0
 11 13  1  0  0  0  0
 11 15  1  0  0  0  0
 12 35  1  0  0  0  0
 13 36  1  0  0  0  0
 15 17  1  0  0  0  0
 15 18  2  0  0  0  0
 16 21  2  0  0  0  0
 16 22  1  0  0  0  0
 17 19  2  0  0  0  0
 18 20  1  0  0  0  0
 18 38  1  0  0  0  0
 19 23  1  0  0  0  0
 19 39  1  0  0  0  0
 20 23  2  0  0  0  0
 20 40  1  0  0  0  0
 21 24  1  0  0  0  0
 21 41  1  0  0  0  0
 22 25  2  0  0  0  0
 22 42  1  0  0  0  0
 23 43  1  0  0  0  0
 24 26  2  0  0  0  0
 24 44  1  0  0  0  0
 25 26  1  0  0  0  0
 25 45  1  0  0  0  0
M  END
> <PUBCHEM_COMPOUND_CID>
11382492

> <PUBCHEM_COMPOUND_CANONICALIZED>
1

> <PUBCHEM_CACTVS_COMPLEXITY>
428

> <PUBCHEM_CACTVS_HBOND_ACCEPTOR>
3

> <PUBCHEM_CACTVS_HBOND_DONOR>
2

> <PUBCHEM_CACTVS_ROTATABLE_BOND>
6

> <PUBCHEM_CACTVS_SUBSKEYS>
AAADceB6MQAAAAAAAAAAAAAAAAAAAAAAAAAwYMAAAAAAAAABUAAAHwAQCAAADAyBmAgwxoLAAgCIAiVSUACCAAAhIgAIiAEGbIgIJjLCkZOEcAhk1BHI2Ae4yMCOwEAAAAAAAACAgAAAAAAAAAAAAAAAAA==

> <PUBCHEM_IUPAC_OPENEYE_NAME>
4-[4-(2-fluorophenyl)phenyl]-N-(4-hydroxyphenyl)butanamide

> <PUBCHEM_IUPAC_CAS_NAME>
4-[4-(2-fluorophenyl)phenyl]-N-(4-hydroxyphenyl)butanamide

> <PUBCHEM_IUPAC_NAME>
4-[4-(2-fluorophenyl)phenyl]-N-(4-hydroxyphenyl)butanamide

> <PUBCHEM_IUPAC_SYSTEMATIC_NAME>
4-[4-(2-fluorophenyl)phenyl]-N-(4-hydroxyphenyl)butanamide

> <PUBCHEM_IUPAC_TRADITIONAL_NAME>
4-[4-(2-fluorophenyl)phenyl]-N-(4-hydroxyphenyl)butyramide

> <PUBCHEM_IUPAC_INCHI>
InChI=1S/C22H20FNO2/c23-21-6-2-1-5-20(21)17-10-8-16(9-11-17)4-3-7-22(26)24-18-12-14-19(25)15-13-18/h1-2,5-6,8-15,25H,3-4,7H2,(H,24,26)

> <PUBCHEM_IUPAC_INCHIKEY>
ODYAQBDIXCVKAE-UHFFFAOYSA-N

> <PUBCHEM_XLOGP3_AA>
4.7

> <PUBCHEM_EXACT_MASS>
349.148

> <PUBCHEM_MOLECULAR_FORMULA>
C22H20FNO2

> <PUBCHEM_MOLECULAR_WEIGHT>
349.405

> <PUBCHEM_OPENEYE_CAN_SMILES>
C1=CC=C(C(=C1)C2=CC=C(C=C2)CCCC(=O)NC3=CC=C(C=C3)O)F

> <PUBCHEM_OPENEYE_ISO_SMILES>
C1=CC=C(C(=C1)C2=CC=C(C=C2)CCCC(=O)NC3=CC=C(C=C3)O)F

> <PUBCHEM_CACTVS_TPSA>
49.3

> <PUBCHEM_MONOISOTOPIC_WEIGHT>
349.148

> <PUBCHEM_TOTAL_CHARGE>
0

> <PUBCHEM_HEAVY_ATOM_COUNT>
26

> <PUBCHEM_ATOM_DEF_STEREO_COUNT>
0

> <PUBCHEM_ATOM_UDEF_STEREO_COUNT>
0

> <PUBCHEM_BOND_DEF_STEREO_COUNT>
0

> <PUBCHEM_BOND_UDEF_STEREO_COUNT>
0

> <PUBCHEM_ISOTOPIC_ATOM_COUNT>
0

> <PUBCHEM_COMPONENT_COUNT>
1

> <PUBCHEM_CACTVS_TAUTO_COUNT>
6

> <PUBCHEM_COORDINATE_TYPE>
1
5
255

> <PUBCHEM_BONDANNOTATIONS>
10  13  8
11  12  8
11  13  8
15  17  8
15  18  8
16  21  8
16  22  8
17  19  8
18  20  8
19  23  8
20  23  8
21  24  8
22  25  8
24  26  8
25  26  8
7  10  8
7  9  8
9  12  8

$$$$
11449069
  -OEChem-11021605012D

 35 38  0     0  0  0  0  0  0999 V2000
    8.8600   -1.2924    0.0000 O   0  0  0  0  0  0  0  0  0  0  0  0
    7.2764   -2.0971    0.0000 N   0  0  0  0  0  0  0  0  0  0  0  0
    5.9245    1.1044    0.0000 N   0  0  0  0  0  0  0  0  0  0  0  0
    2.0000   -0.2924    0.0000 N   0  0  0  0  0  0  0  0  0  0  0  0
    6.3301   -0.7924    0.0000 C   0  0  0  0  0  0  0  0  0  0  0  0
    6.3301   -1.7924    0.0000 C   0  0  0  0  0  0  0  0  0  0  0  0
    7.2764   -0.4877    0.0000 C   0  0  0  0  0  0  0  0  0  0  0  0
    5.4641   -0.2924    0.0000 C   0  0  0  0  0  0  0  0  0  0  0  0
    4.5981   -0.7924    0.0000 C   0  0  0  0  0  0  0  0  0  0  0  0
    7.8600   -1.2924    0.0000 C   0  0  0  0  0  0  0  0  0  0  0  0
    5.4641   -2.2924    0.0000 C   0  0  0  0  0  0  0  0  0  0  0  0
    7.5870    0.4629    0.0000 C   0  0  0  0  0  0  0  0  0  0  0  0
    4.5981   -1.7924    0.0000 C   0  0  0  0  0  0  0  0  0  0  0  0
    3.7320   -0.2924    0.0000 C   0  0  0  0  0  0  0  0  0  0  0  0
    6.9192    1.2072    0.0000 C   0  0  0  0  0  0  0  0  0  0  0  0
    7.1288    2.1850    0.0000 C   0  0  0  0  0  0  0  0  0  0  0  0
    3.7320    0.7076    0.0000 C   0  0  0  0  0  0  0  0  0  0  0  0
    2.8660   -0.7924    0.0000 C   0  0  0  0  0  0  0  0  0  0  0  0
    5.5193    2.0186    0.0000 C   0  0  0  0  0  0  0  0  0  0  0  0
    6.2636    2.6864    0.0000 C   0  0  0  0  0  0  0  0  0  0  0  0
    2.8660    1.2076    0.0000 C   0  0  0  0  0  0  0  0  0  0  0  0
    2.0000    0.7076    0.0000 C   0  0  0  0  0  0  0  0  0  0  0  0
    5.4641    0.3276    0.0000 H   0  0  0  0  0  0  0  0  0  0  0  0
    7.4690   -2.6864    0.0000 H   0  0  0  0  0  0  0  0  0  0  0  0
    5.4641   -2.9124    0.0000 H   0  0  0  0  0  0  0  0  0  0  0  0
    8.1937    0.5907    0.0000 H   0  0  0  0  0  0  0  0  0  0  0  0
    4.0611   -2.1024    0.0000 H   0  0  0  0  0  0  0  0  0  0  0  0
    5.6135    0.5680    0.0000 H   0  0  0  0  0  0  0  0  0  0  0  0
    7.6956    2.4362    0.0000 H   0  0  0  0  0  0  0  0  0  0  0  0
    4.2690    1.0176    0.0000 H   0  0  0  0  0  0  0  0  0  0  0  0
    2.8660   -1.4124    0.0000 H   0  0  0  0  0  0  0  0  0  0  0  0
    4.9131    2.1486    0.0000 H   0  0  0  0  0  0  0  0  0  0  0  0
    6.1999    3.3032    0.0000 H   0  0  0  0  0  0  0  0  0  0  0  0
    2.8660    1.8276    0.0000 H   0  0  0  0  0  0  0  0  0  0  0  0
    1.4631    1.0176    0.0000 H   0  0  0  0  0  0  0  0  0  0  0  0
  1 10  2  0  0  0  0
  2  6  1  0  0  0  0
  2 10  1  0  0  0  0
  2 24  1  0  0  0  0
  3 15  1  0  0  0  0
  3 19  1  0  0  0  0
  3 28  1  0  0  0  0
  4 18  1  0  0  0  0
  4 22  2  0  0  0  0
  5  6  2  0  0  0  0
  5  7  1  0  0  0  0
  5  8  1  0  0  0  0
  6 11  1  0  0  0  0
  7 10  1  0  0  0  0
  7 12  2  0  0  0  0
  8  9  2  0  0  0  0
  8 23  1  0  0  0  0
  9 13  1  0  0  0  0
  9 14  1  0  0  0  0
 11 13  2  0  0  0  0
 11 25  1  0  0  0  0
 12 15  1  0  0  0  0
 12 26  1  0  0  0  0
 13 27  1  0  0  0  0
 14 17  1  0  0  0  0
 14 18  2  0  0  0  0
 15 16  2  0  0  0  0
 16 20  1  0  0  0  0
 16 29  1  0  0  0  0
 17 21  2  0  0  0  0
 17 30  1  0  0  0  0
 18 31  1  0  0  0  0
 19 20  2  0  0  0  0
 19 32  1  0  0  0  0
 20 33  1  0  0  0  0
 21 22  1  0  0  0  0
 21 34  1  0  0  0  0
 22 35  1  0  0  0  0
M  END
> <PUBCHEM_COMPOUND_CID>
11449069

> <PUBCHEM_COMPOUND_CANONICALIZED>
1

> <PUBCHEM_CACTVS_COMPLEXITY>
461

> <PUBCHEM_CACTVS_HBOND_ACCEPTOR>
2

> <PUBCHEM_CACTVS_HBOND_DONOR>
2

> <PUBCHEM_CACTVS_ROTATABLE_BOND>
2

> <PUBCHEM_CACTVS_SUBSKEYS>
AAADccB7IAAAAAAAAAAAAAAAAAAAAWLAAAA8QAAAAAAAAFgB8AAAHgAQAAAADAjBngQ8wJLJkACoAzV3VACCgCAxAiAI2aE4ZNgIIPLAlZGEIAhglADIyYcciMCOiAACAAACAAAQAAQAAAQAAAAAAAAAAA==

> <PUBCHEM_IUPAC_OPENEYE_NAME>
(3E)-5-(3-pyridyl)-3-(1H-pyrrol-2-ylmethylene)indolin-2-one

> <PUBCHEM_IUPAC_CAS_NAME>
(3E)-5-(3-pyridinyl)-3-(1H-pyrrol-2-ylmethylidene)-1H-indol-2-one

> <PUBCHEM_IUPAC_NAME>
(3E)-5-pyridin-3-yl-3-(1H-pyrrol-2-ylmethylidene)-1H-indol-2-one

> <PUBCHEM_IUPAC_SYSTEMATIC_NAME>
(3E)-5-pyridin-3-yl-3-(1H-pyrrol-2-ylmethylidene)-1H-indol-2-one

> <PUBCHEM_IUPAC_TRADITIONAL_NAME>
(3E)-5-(3-pyridyl)-3-(1H-pyrrol-2-ylmethylene)oxindole

> <PUBCHEM_IUPAC_INCHI>
InChI=1S/C18H13N3O/c22-18-16(10-14-4-2-8-20-14)15-9-12(5-6-17(15)21-18)13-3-1-7-19-11-13/h1-11,20H,(H,21,22)/b16-10+

> <PUBCHEM_IUPAC_INCHIKEY>
IQNTXIMXKCURDC-MHWRWJLKSA-N

> <PUBCHEM_XLOGP3_AA>
2.3

> <PUBCHEM_EXACT_MASS>
287.106

> <PUBCHEM_MOLECULAR_FORMULA>
C18H13N3O

> <PUBCHEM_MOLECULAR_WEIGHT>
287.322

> <PUBCHEM_OPENEYE_CAN_SMILES>
C1=CC(=CN=C1)C2=CC3=C(C=C2)NC(=O)C3=CC4=CC=CN4

> <PUBCHEM_OPENEYE_ISO_SMILES>
C1=CC(=CN=C1)C2=CC\3=C(C=C2)NC(=O)/C3=C/C4=CC=CN4

> <PUBCHEM_CACTVS_TPSA>
57.8

> <PUBCHEM_MONOISOTOPIC_WEIGHT>
287.106

> <PUBCHEM_TOTAL_CHARGE>
0

> <PUBCHEM_HEAVY_ATOM_COUNT>
22

> <PUBCHEM_ATOM_DEF_STEREO_COUNT>
0

> <PUBCHEM_ATOM_UDEF_STEREO_COUNT>
0

> <PUBCHEM_BOND_DEF_STEREO_COUNT>
1

> <PUBCHEM_BOND_UDEF_STEREO_COUNT>
0

> <PUBCHEM_ISOTOPIC_ATOM_COUNT>
0

> <PUBCHEM_COMPONENT_COUNT>
1

> <PUBCHEM_CACTVS_TAUTO_COUNT>
10

> <PUBCHEM_COORDINATE_TYPE>
1
5
255

> <PUBCHEM_BONDANNOTATIONS>
11  13  8
14  17  8
14  18  8
15  16  8
16  20  8
17  21  8
19  20  8
21  22  8
3  15  8
3  19  8
4  18  8
4  22  8
5  6  8
5  8  8
6  11  8
8  9  8
9  13  8

$$$$
16760346
  -OEChem-11021605012D

 19 19  0     0  0  0  0  0  0999 V2000
    2.0000   -0.3100    0.0000 Br  0  0  0  0  0  0  0  0  0  0  0  0
    2.0000   -2.3100    0.0000 Br  0  0  0  0  0  0  0  0  0  0  0  0
    5.4641   -2.3100    0.0000 Br  0  0  0  0  0  0  0  0  0  0  0  0
    3.7320   -3.3100    0.0000 Br  0  0  0  0  0  0  0  0  0  0  0  0
    5.4641    2.6900    0.0000 O   0  0  0  0  0  0  0  0  0  0  0  0
    3.7320    2.6900    0.0000 O   0  0  0  0  0  0  0  0  0  0  0  0
    3.7320   -0.3100    0.0000 C   0  0  0  0  0  0  0  0  0  0  0  0
    2.8660   -0.8100    0.0000 C   0  0  0  0  0  0  0  0  0  0  0  0
    4.5981   -0.8100    0.0000 C   0  0  0  0  0  0  0  0  0  0  0  0
    2.8660   -1.8100    0.0000 C   0  0  0  0  0  0  0  0  0  0  0  0
    4.5981   -1.8100    0.0000 C   0  0  0  0  0  0  0  0  0  0  0  0
    3.7320   -2.3100    0.0000 C   0  0  0  0  0  0  0  0  0  0  0  0
    3.7320    0.6900    0.0000 C   0  0  0  0  0  0  0  0  0  0  0  0
    4.5981    1.1900    0.0000 C   0  0  0  0  0  0  0  0  0  0  0  0
    4.5981    2.1900    0.0000 C   0  0  0  0  0  0  0  0  0  0  0  0
    5.1350   -0.5000    0.0000 H   0  0  0  0  0  0  0  0  0  0  0  0
    3.1951    1.0000    0.0000 H   0  0  0  0  0  0  0  0  0  0  0  0
    5.1350    0.8800    0.0000 H   0  0  0  0  0  0  0  0  0  0  0  0
    5.4641    3.3100    0.0000 H   0  0  0  0  0  0  0  0  0  0  0  0
  1  8  1  0  0  0  0
  2 10  1  0  0  0  0
  3 11  1  0  0  0  0
  4 12  1  0  0  0  0
  5 15  1  0  0  0  0
  5 19  1  0  0  0  0
  6 15  2  0  0  0  0
  7  8  1  0  0  0  0
  7  9  2  0  0  0  0
  7 13  1  0  0  0  0
  8 10  2  0  0  0  0
  9 11  1  0  0  0  0
  9 16  1  0  0  0  0
 10 12  1  0  0  0  0
 11 12  2  0  0  0  0
 13 14  2  0  0  0  0
 13 17  1  0  0  0  0
 14 15  1  0  0  0  0
 14 18  1  0  0  0  0
M  END
> <PUBCHEM_COMPOUND_CID>
16760346

> <PUBCHEM_COMPOUND_CANONICALIZED>
1

> <PUBCHEM_CACTVS_COMPLEXITY>
269

> <PUBCHEM_CACTVS_HBOND_ACCEPTOR>
2

> <PUBCHEM_CACTVS_HBOND_DONOR>
1

> <PUBCHEM_CACTVS_ROTATABLE_BOND>
2

> <PUBCHEM_CACTVS_SUBSKEYS>
AAADcYBwMAAAHAAAAAAAAAAAAAAAAAAAAAAwAAAAAAAAAAABAAAAGgBACAABrACAmAAwCIAAAgCIAiDSCAACAAAgAAQIiAAAAOgIJCKAERCAMAAggAAIm5cAgAAOAgAEEAAggAEEAAggAEEAAgAAAAAAAA==

> <PUBCHEM_IUPAC_OPENEYE_NAME>
(E)-3-(2,3,4,5-tetrabromophenyl)prop-2-enoic acid

> <PUBCHEM_IUPAC_CAS_NAME>
(E)-3-(2,3,4,5-tetrabromophenyl)-2-propenoic acid

> <PUBCHEM_IUPAC_NAME>
(E)-3-(2,3,4,5-tetrabromophenyl)prop-2-enoic acid

> <PUBCHEM_IUPAC_SYSTEMATIC_NAME>
(E)-3-[2,3,4,5-tetrakis(bromanyl)phenyl]prop-2-enoic acid

> <PUBCHEM_IUPAC_TRADITIONAL_NAME>
(E)-3-(2,3,4,5-tetrabromophenyl)acrylic acid

> <PUBCHEM_IUPAC_INCHI>
InChI=1S/C9H4Br4O2/c10-5-3-4(1-2-6(14)15)7(11)9(13)8(5)12/h1-3H,(H,14,15)/b2-1+

> <PUBCHEM_IUPAC_INCHIKEY>
SVJQCVOKYJWUBC-OWOJBTEDSA-N

> <PUBCHEM_XLOGP3_AA>
4.6

> <PUBCHEM_EXACT_MASS>
463.69

> <PUBCHEM_MOLECULAR_FORMULA>
C9H4Br4O2

> <PUBCHEM_MOLECULAR_WEIGHT>
463.745

> <PUBCHEM_OPENEYE_CAN_SMILES>
C1=C(C(=C(C(=C1Br)Br)Br)Br)C=CC(=O)O

> <PUBCHEM_OPENEYE_ISO_SMILES>
C1=C(C(=C(C(=C1Br)Br)Br)Br)/C=C/C(=O)O

> <PUBCHEM_CACTVS_TPSA>
37.3

> <PUBCHEM_MONOISOTOPIC_WEIGHT>
459.694

> <PUBCHEM_TOTAL_CHARGE>
0

> <PUBCHEM_HEAVY_ATOM_COUNT>
15

> <PUBCHEM_ATOM_DEF_STEREO_COUNT>
0

> <PUBCHEM_ATOM_UDEF_STEREO_COUNT>
0

> <PUBCHEM_BOND_DEF_STEREO_COUNT>
1

> <PUBCHEM_BOND_UDEF_STEREO_COUNT>
0

> <PUBCHEM_ISOTOPIC_ATOM_COUNT>
0

> <PUBCHEM_COMPONENT_COUNT>
1

> <PUBCHEM_CACTVS_TAUTO_COUNT>
1

> <PUBCHEM_COORDINATE_TYPE>
1
5
255

> <PUBCHEM_BONDANNOTATIONS>
10  12  8
11  12  8
7  8  8
7  9  8
8  10  8
9  11  8

$$$$
6711154
  -OEChem-11021605012D

 40 43  0     0  0  0  0  0  0999 V2000
    2.8660   -5.0000    0.0000 F   0  0  0  0  0  0  0  0  0  0  0  0
    2.8660    5.0000    0.0000 F   0  0  0  0  0  0  0  0  0  0  0  0
    6.7210   -1.7552    0.0000 O   0  0  0  0  0  0  0  0  0  0  0  0
    6.7210    1.7552    0.0000 O   0  0  0  0  0  0  0  0  0  0  0  0
    2.8660   -1.0000    0.0000 N   0  0  0  0  0  0  0  0  0  0  0  0
    2.8660    1.0000    0.0000 N   0  0  0  0  0  0  0  0  0  0  0  0
    6.9939    0.0000    0.0000 N   0  0  0  0  0  0  0  0  0  0  0  0
    5.4641    0.5000    0.0000 C   0  0  0  0  0  0  0  0  0  0  0  0
    5.4641   -0.5000    0.0000 C   0  0  0  0  0  0  0  0  0  0  0  0
    3.7320    0.5000    0.0000 C   0  0  0  0  0  0  0  0  0  0  0  0
    3.7320   -0.5000    0.0000 C   0  0  0  0  0  0  0  0  0  0  0  0
    4.5981    1.0000    0.0000 C   0  0  0  0  0  0  0  0  0  0  0  0
    4.5981   -1.0000    0.0000 C   0  0  0  0  0  0  0  0  0  0  0  0
    6.4103    0.8047    0.0000 C   0  0  0  0  0  0  0  0  0  0  0  0
    6.4103   -0.8047    0.0000 C   0  0  0  0  0  0  0  0  0  0  0  0
    2.8660    2.0000    0.0000 C   0  0  0  0  0  0  0  0  0  0  0  0
    2.8660   -2.0000    0.0000 C   0  0  0  0  0  0  0  0  0  0  0  0
    2.0000   -2.5000    0.0000 C   0  0  0  0  0  0  0  0  0  0  0  0
    3.7320    2.5000    0.0000 C   0  0  0  0  0  0  0  0  0  0  0  0
    3.7320   -2.5000    0.0000 C   0  0  0  0  0  0  0  0  0  0  0  0
    2.0000    2.5000    0.0000 C   0  0  0  0  0  0  0  0  0  0  0  0
    3.7320    3.5000    0.0000 C   0  0  0  0  0  0  0  0  0  0  0  0
    2.0000   -3.5000    0.0000 C   0  0  0  0  0  0  0  0  0  0  0  0
    2.0000    3.5000    0.0000 C   0  0  0  0  0  0  0  0  0  0  0  0
    3.7320   -3.5000    0.0000 C   0  0  0  0  0  0  0  0  0  0  0  0
    2.8660    4.0000    0.0000 C   0  0  0  0  0  0  0  0  0  0  0  0
    2.8660   -4.0000    0.0000 C   0  0  0  0  0  0  0  0  0  0  0  0
    4.5981    1.6200    0.0000 H   0  0  0  0  0  0  0  0  0  0  0  0
    4.5981   -1.6200    0.0000 H   0  0  0  0  0  0  0  0  0  0  0  0
    2.3291   -0.6900    0.0000 H   0  0  0  0  0  0  0  0  0  0  0  0
    2.3291    0.6900    0.0000 H   0  0  0  0  0  0  0  0  0  0  0  0
    7.6139    0.0000    0.0000 H   0  0  0  0  0  0  0  0  0  0  0  0
    1.4631   -2.1900    0.0000 H   0  0  0  0  0  0  0  0  0  0  0  0
    4.2690    2.1900    0.0000 H   0  0  0  0  0  0  0  0  0  0  0  0
    4.2690   -2.1900    0.0000 H   0  0  0  0  0  0  0  0  0  0  0  0
    1.4631    2.1900    0.0000 H   0  0  0  0  0  0  0  0  0  0  0  0
    4.2690    3.8100    0.0000 H   0  0  0  0  0  0  0  0  0  0  0  0
    1.4631   -3.8100    0.0000 H   0  0  0  0  0  0  0  0  0  0  0  0
    1.4631    3.8100    0.0000 H   0  0  0  0  0  0  0  0  0  0  0  0
    4.2690   -3.8100    0.0000 H   0  0  0  0  0  0  0  0  0  0  0  0
  1 27  1  0  0  0  0
  2 26  1  0  0  0  0
  3 15  2  0  0  0  0
  4 14  2  0  0  0  0
  5 11  1  0  0  0  0
  5 17  1  0  0  0  0
  5 30  1  0  0  0  0
  6 10  1  0  0  0  0
  6 16  1  0  0  0  0
  6 31  1  0  0  0  0
  7 14  1  0  0  0  0
  7 15  1  0  0  0  0
  7 32  1  0  0  0  0
  8  9  1  0  0  0  0
  8 12  2  0  0  0  0
  8 14  1  0  0  0  0
  9 13  2  0  0  0  0
  9 15  1  0  0  0  0
 10 11  2  0  0  0  0
 10 12  1  0  0  0  0
 11 13  1  0  0  0  0
 12 28  1  0  0  0  0
 13 29  1  0  0  0  0
 16 19  2  0  0  0  0
 16 21  1  0  0  0  0
 17 18  2  0  0  0  0
 17 20  1  0  0  0  0
 18 23  1  0  0  0  0
 18 33  1  0  0  0  0
 19 22  1  0  0  0  0
 19 34  1  0  0  0  0
 20 25  2  0  0  0  0
 20 35  1  0  0  0  0
 21 24  2  0  0  0  0
 21 36  1  0  0  0  0
 22 26  2  0  0  0  0
 22 37  1  0  0  0  0
 23 27  2  0  0  0  0
 23 38  1  0  0  0  0
 24 26  1  0  0  0  0
 24 39  1  0  0  0  0
 25 27  1  0  0  0  0
 25 40  1  0  0  0  0
M  END
> <PUBCHEM_COMPOUND_CID>
6711154

> <PUBCHEM_COMPOUND_CANONICALIZED>
1

> <PUBCHEM_CACTVS_COMPLEXITY>
511

> <PUBCHEM_CACTVS_HBOND_ACCEPTOR>
6

> <PUBCHEM_CACTVS_HBOND_DONOR>
3

> <PUBCHEM_CACTVS_ROTATABLE_BOND>
4

> <PUBCHEM_CACTVS_SUBSKEYS>
AAADccB7MYAAAAAAAAAAAAAAAAAAAWAAAAAwYMAAAAAAAFgBUAAAHwAQAAAADAiBmAgwwILAAACIAiVSUACCAAAlAgAIiAEAdMgIYHLAlZGUIQhglCDIyYcdiYCeiAAAQAAQACAQAACAACAAQAAAAAAAAA==

> <PUBCHEM_IUPAC_OPENEYE_NAME>
5,6-bis(4-fluoroanilino)isoindoline-1,3-dione

> <PUBCHEM_IUPAC_CAS_NAME>
5,6-bis(4-fluoroanilino)isoindole-1,3-dione

> <PUBCHEM_IUPAC_NAME>
5,6-bis(4-fluoroanilino)isoindole-1,3-dione

> <PUBCHEM_IUPAC_SYSTEMATIC_NAME>
5,6-bis[(4-fluorophenyl)amino]isoindole-1,3-dione

> <PUBCHEM_IUPAC_TRADITIONAL_NAME>
5,6-bis(4-fluoroanilino)isoindoline-1,3-quinone

> <PUBCHEM_IUPAC_INCHI>
InChI=1S/C20H13F2N3O2/c21-11-1-5-13(6-2-11)23-17-9-15-16(20(27)25-19(15)26)10-18(17)24-14-7-3-12(22)4-8-14/h1-10,23-24H,(H,25,26,27)

> <PUBCHEM_IUPAC_INCHIKEY>
RONQPWQYDRPRGG-UHFFFAOYSA-N

> <PUBCHEM_XLOGP3_AA>
4

> <PUBCHEM_EXACT_MASS>
365.098

> <PUBCHEM_MOLECULAR_FORMULA>
C20H13F2N3O2

> <PUBCHEM_MOLECULAR_WEIGHT>
365.34

> <PUBCHEM_OPENEYE_CAN_SMILES>
C1=CC(=CC=C1NC2=C(C=C3C(=C2)C(=O)NC3=O)NC4=CC=C(C=C4)F)F

> <PUBCHEM_OPENEYE_ISO_SMILES>
C1=CC(=CC=C1NC2=C(C=C3C(=C2)C(=O)NC3=O)NC4=CC=C(C=C4)F)F

> <PUBCHEM_CACTVS_TPSA>
70.2

> <PUBCHEM_MONOISOTOPIC_WEIGHT>
365.098

> <PUBCHEM_TOTAL_CHARGE>
0

> <PUBCHEM_HEAVY_ATOM_COUNT>
27

> <PUBCHEM_ATOM_DEF_STEREO_COUNT>
0

> <PUBCHEM_ATOM_UDEF_STEREO_COUNT>
0

> <PUBCHEM_BOND_DEF_STEREO_COUNT>
0

> <PUBCHEM_BOND_UDEF_STEREO_COUNT>
0

> <PUBCHEM_ISOTOPIC_ATOM_COUNT>
0

> <PUBCHEM_COMPONENT_COUNT>
1

> <PUBCHEM_CACTVS_TAUTO_COUNT>
17

> <PUBCHEM_COORDINATE_TYPE>
1
5
255

> <PUBCHEM_BONDANNOTATIONS>
10  11  8
10  12  8
11  13  8
16  19  8
16  21  8
17  18  8
17  20  8
18  23  8
19  22  8
20  25  8
21  24  8
22  26  8
23  27  8
24  26  8
25  27  8
8  12  8
8  9  8
9  13  8

$$$$
5326843
  -OEChem-11021605012D

 37 39  0     0  0  0  0  0  0999 V2000
    9.2619   -1.4002    0.0000 O   0  0  0  0  0  0  0  0  0  0  0  0
    4.6783   -2.2049    0.0000 N   0  0  0  0  0  0  0  0  0  0  0  0
    2.8660   -0.4002    0.0000 N   0  0  0  0  0  0  0  0  0  0  0  0
    2.8660   -2.4002    0.0000 N   0  0  0  0  0  0  0  0  0  0  0  0
    4.6783   -0.5954    0.0000 C   0  0  0  0  0  0  0  0  0  0  0  0
    4.9889    0.3551    0.0000 C   0  0  0  0  0  0  0  0  0  0  0  0
    5.2619   -1.4002    0.0000 C   0  0  0  0  0  0  0  0  0  0  0  0
    3.7320   -0.9002    0.0000 C   0  0  0  0  0  0  0  0  0  0  0  0
    4.3211    1.0994    0.0000 C   0  0  0  0  0  0  0  0  0  0  0  0
    3.7320   -1.9002    0.0000 C   0  0  0  0  0  0  0  0  0  0  0  0
    4.6318    2.0499    0.0000 C   0  0  0  0  0  0  0  0  0  0  0  0
    6.2619   -1.4002    0.0000 C   0  0  0  0  0  0  0  0  0  0  0  0
    3.9639    2.7942    0.0000 C   0  0  0  0  0  0  0  0  0  0  0  0
    6.7619   -2.2662    0.0000 C   0  0  0  0  0  0  0  0  0  0  0  0
    6.7619   -0.5341    0.0000 C   0  0  0  0  0  0  0  0  0  0  0  0
    2.0000   -0.9002    0.0000 C   0  0  0  0  0  0  0  0  0  0  0  0
    2.0000   -1.9002    0.0000 C   0  0  0  0  0  0  0  0  0  0  0  0
    7.7619   -2.2662    0.0000 C   0  0  0  0  0  0  0  0  0  0  0  0
    7.7619   -0.5341    0.0000 C   0  0  0  0  0  0  0  0  0  0  0  0
    8.2619   -1.4002    0.0000 C   0  0  0  0  0  0  0  0  0  0  0  0
    5.5359    0.0631    0.0000 H   0  0  0  0  0  0  0  0  0  0  0  0
    5.3715    0.8430    0.0000 H   0  0  0  0  0  0  0  0  0  0  0  0
    3.7742    1.3914    0.0000 H   0  0  0  0  0  0  0  0  0  0  0  0
    3.9385    0.6115    0.0000 H   0  0  0  0  0  0  0  0  0  0  0  0
    4.8709   -2.7942    0.0000 H   0  0  0  0  0  0  0  0  0  0  0  0
    5.1787    1.7579    0.0000 H   0  0  0  0  0  0  0  0  0  0  0  0
    5.0143    2.5378    0.0000 H   0  0  0  0  0  0  0  0  0  0  0  0
    2.8660    0.2198    0.0000 H   0  0  0  0  0  0  0  0  0  0  0  0
    4.4254    3.2083    0.0000 H   0  0  0  0  0  0  0  0  0  0  0  0
    3.5498    3.2557    0.0000 H   0  0  0  0  0  0  0  0  0  0  0  0
    3.5024    2.3802    0.0000 H   0  0  0  0  0  0  0  0  0  0  0  0
    6.4519    0.0028    0.0000 H   0  0  0  0  0  0  0  0  0  0  0  0
    6.4519   -2.8031    0.0000 H   0  0  0  0  0  0  0  0  0  0  0  0
    1.4631   -0.5902    0.0000 H   0  0  0  0  0  0  0  0  0  0  0  0
    1.4631   -2.2102    0.0000 H   0  0  0  0  0  0  0  0  0  0  0  0
    8.0719    0.0028    0.0000 H   0  0  0  0  0  0  0  0  0  0  0  0
    8.0719   -2.8031    0.0000 H   0  0  0  0  0  0  0  0  0  0  0  0
  1 20  2  0  0  0  0
  2  7  1  0  0  0  0
  2 10  1  0  0  0  0
  2 25  1  0  0  0  0
  3  8  1  0  0  0  0
  3 16  1  0  0  0  0
  3 28  1  0  0  0  0
  4 10  2  0  0  0  0
  4 17  1  0  0  0  0
  5  6  1  0  0  0  0
  5  7  1  0  0  0  0
  5  8  2  0  0  0  0
  6  9  1  0  0  0  0
  6 21  1  0  0  0  0
  6 22  1  0  0  0  0
  7 12  2  0  0  0  0
  8 10  1  0  0  0  0
  9 11  1  0  0  0  0
  9 23  1  0  0  0  0
  9 24  1  0  0  0  0
 11 13  1  0  0  0  0
 11 26  1  0  0  0  0
 11 27  1  0  0  0  0
 12 14  1  0  0  0  0
 12 15  1  0  0  0  0
 13 29  1  0  0  0  0
 13 30  1  0  0  0  0
 13 31  1  0  0  0  0
 14 18  2  0  0  0  0
 14 33  1  0  0  0  0
 15 19  2  0  0  0  0
 15 32  1  0  0  0  0
 16 17  2  0  0  0  0
 16 34  1  0  0  0  0
 17 35  1  0  0  0  0
 18 20  1  0  0  0  0
 18 37  1  0  0  0  0
 19 20  1  0  0  0  0
 19 36  1  0  0  0  0
M  END
> <PUBCHEM_COMPOUND_CID>
5326843

> <PUBCHEM_COMPOUND_CANONICALIZED>
1

> <PUBCHEM_CACTVS_COMPLEXITY>
612

> <PUBCHEM_CACTVS_HBOND_ACCEPTOR>
3

> <PUBCHEM_CACTVS_HBOND_DONOR>
2

> <PUBCHEM_CACTVS_ROTATABLE_BOND>
3

> <PUBCHEM_CACTVS_SUBSKEYS>
AAADceB7IAAAAAAAAAAAAAAAAAAAAQAAAAAgQAAAAAAAAEAAAAAAHgAQAAAADAzBgAQDAALAAACoAqZ2ZACAAAEgAgAJCIAIAFgIQAIAiAAUAAAAgACIgYMQAAAAAAAAAAAAAAAAAAAAAAAAAAAAAAAAAA==

> <PUBCHEM_IUPAC_OPENEYE_NAME>
4-(7-butyl-1,5-dihydropyrrolo[2,3-b]pyrazin-6-ylidene)cyclohexa-2,5-dien-1-one

> <PUBCHEM_IUPAC_CAS_NAME>
4-(7-butyl-1,5-dihydropyrrolo[2,3-b]pyrazin-6-ylidene)-1-cyclohexa-2,5-dienone

> <PUBCHEM_IUPAC_NAME>
4-(7-butyl-1,5-dihydropyrrolo[2,3-b]pyrazin-6-ylidene)cyclohexa-2,5-dien-1-one

> <PUBCHEM_IUPAC_SYSTEMATIC_NAME>
4-(7-butyl-1,5-dihydropyrrolo[2,3-b]pyrazin-6-ylidene)cyclohexa-2,5-dien-1-one

> <PUBCHEM_IUPAC_TRADITIONAL_NAME>
4-(7-butyl-1,5-dihydropyrrolo[2,3-b]pyrazin-6-ylidene)cyclohexa-2,5-dien-1-one

> <PUBCHEM_IUPAC_INCHI>
InChI=1S/C16H17N3O/c1-2-3-4-13-14(11-5-7-12(20)8-6-11)19-16-15(13)17-9-10-18-16/h5-10,17H,2-4H2,1H3,(H,18,19)

> <PUBCHEM_IUPAC_INCHIKEY>
AYIIQABSVDIZSY-UHFFFAOYSA-N

> <PUBCHEM_XLOGP3_AA>
1.8

> <PUBCHEM_EXACT_MASS>
267.137

> <PUBCHEM_MOLECULAR_FORMULA>
C16H17N3O

> <PUBCHEM_MOLECULAR_WEIGHT>
267.332

> <PUBCHEM_OPENEYE_CAN_SMILES>
CCCCC1=C2C(=NC=CN2)NC1=C3C=CC(=O)C=C3

> <PUBCHEM_OPENEYE_ISO_SMILES>
CCCCC1=C2C(=NC=CN2)NC1=C3C=CC(=O)C=C3

> <PUBCHEM_CACTVS_TPSA>
53.5

> <PUBCHEM_MONOISOTOPIC_WEIGHT>
267.137

> <PUBCHEM_TOTAL_CHARGE>
0

> <PUBCHEM_HEAVY_ATOM_COUNT>
20

> <PUBCHEM_ATOM_DEF_STEREO_COUNT>
0

> <PUBCHEM_ATOM_UDEF_STEREO_COUNT>
0

> <PUBCHEM_BOND_DEF_STEREO_COUNT>
0

> <PUBCHEM_BOND_UDEF_STEREO_COUNT>
0

> <PUBCHEM_ISOTOPIC_ATOM_COUNT>
0

> <PUBCHEM_COMPONENT_COUNT>
1

> <PUBCHEM_CACTVS_TAUTO_COUNT>
19

> <PUBCHEM_COORDINATE_TYPE>
1
5
255

> <PUBCHEM_BONDANNOTATIONS>
2  10  8
2  7  8
5  7  8
5  8  8
8  10  8

$$$$
4124851
  -OEChem-11021605012D

 25 26  0     0  0  0  0  0  0999 V2000
    4.8147    2.1206    0.0000 S   0  0  0  0  0  0  0  0  0  0  0  0
    4.8535   -0.4667    0.0000 O   0  0  0  0  0  0  0  0  0  0  0  0
    3.0934    2.5818    0.0000 O   0  0  0  0  0  0  0  0  0  0  0  0
    3.7320    0.9182    0.0000 N   0  0  0  0  0  0  0  0  0  0  0  0
    5.3147    1.2546    0.0000 N   0  0  0  0  0  0  0  0  0  0  0  0
    2.8660    0.4182    0.0000 C   0  0  0  0  0  0  0  0  0  0  0  0
    2.8660   -0.5818    0.0000 C   0  0  0  0  0  0  0  0  0  0  0  0
    4.6456    0.5114    0.0000 C   0  0  0  0  0  0  0  0  0  0  0  0
    3.8366    1.9127    0.0000 C   0  0  0  0  0  0  0  0  0  0  0  0
    2.0000   -1.0818    0.0000 C   0  0  0  0  0  0  0  0  0  0  0  0
    3.7320   -1.0818    0.0000 C   0  0  0  0  0  0  0  0  0  0  0  0
    6.3092    1.1500    0.0000 C   0  0  0  0  0  0  0  0  0  0  0  0
    2.0000   -2.0818    0.0000 C   0  0  0  0  0  0  0  0  0  0  0  0
    3.7320   -2.0818    0.0000 C   0  0  0  0  0  0  0  0  0  0  0  0
    2.8660   -2.5818    0.0000 C   0  0  0  0  0  0  0  0  0  0  0  0
    2.6540    1.0008    0.0000 H   0  0  0  0  0  0  0  0  0  0  0  0
    2.2554    0.3105    0.0000 H   0  0  0  0  0  0  0  0  0  0  0  0
    1.4631   -0.7718    0.0000 H   0  0  0  0  0  0  0  0  0  0  0  0
    4.2690   -0.7718    0.0000 H   0  0  0  0  0  0  0  0  0  0  0  0
    6.2444    0.5334    0.0000 H   0  0  0  0  0  0  0  0  0  0  0  0
    6.9258    1.0852    0.0000 H   0  0  0  0  0  0  0  0  0  0  0  0
    6.3741    1.7667    0.0000 H   0  0  0  0  0  0  0  0  0  0  0  0
    1.4631   -2.3918    0.0000 H   0  0  0  0  0  0  0  0  0  0  0  0
    4.2690   -2.3918    0.0000 H   0  0  0  0  0  0  0  0  0  0  0  0
    2.8660   -3.2018    0.0000 H   0  0  0  0  0  0  0  0  0  0  0  0
  1  5  1  0  0  0  0
  1  9  1  0  0  0  0
  2  8  2  0  0  0  0
  3  9  2  0  0  0  0
  4  6  1  0  0  0  0
  4  8  1  0  0  0  0
  4  9  1  0  0  0  0
  5  8  1  0  0  0  0
  5 12  1  0  0  0  0
  6  7  1  0  0  0  0
  6 16  1  0  0  0  0
  6 17  1  0  0  0  0
  7 10  2  0  0  0  0
  7 11  1  0  0  0  0
 10 13  1  0  0  0  0
 10 18  1  0  0  0  0
 11 14  2  0  0  0  0
 11 19  1  0  0  0  0
 12 20  1  0  0  0  0
 12 21  1  0  0  0  0
 12 22  1  0  0  0  0
 13 15  2  0  0  0  0
 13 23  1  0  0  0  0
 14 15  1  0  0  0  0
 14 24  1  0  0  0  0
 15 25  1  0  0  0  0
M  END
> <PUBCHEM_COMPOUND_CID>
4124851

> <PUBCHEM_COMPOUND_CANONICALIZED>
1

> <PUBCHEM_CACTVS_COMPLEXITY>
277

> <PUBCHEM_CACTVS_HBOND_ACCEPTOR>
3

> <PUBCHEM_CACTVS_HBOND_DONOR>
0

> <PUBCHEM_CACTVS_ROTATABLE_BOND>
2

> <PUBCHEM_CACTVS_SUBSKEYS>
AAADccBzMABAAAAAAAAAAAAAAAAAAWAAAAAwAAAAAAAAAAABAAAAHgQAQAAADADBGAQzAIMAAACIAiBCEACCAAAgAAAIiAAIBIiIICKAkRGEIAhohyIIiAcQgAAOAAAAAAAAAAAAAAAAAAAAAAAAAAAAAA==

> <PUBCHEM_IUPAC_OPENEYE_NAME>
4-benzyl-2-methyl-1,2,4-thiadiazolidine-3,5-dione

> <PUBCHEM_IUPAC_CAS_NAME>
2-methyl-4-(phenylmethyl)-1,2,4-thiadiazolidine-3,5-dione

> <PUBCHEM_IUPAC_NAME>
4-benzyl-2-methyl-1,2,4-thiadiazolidine-3,5-dione

> <PUBCHEM_IUPAC_SYSTEMATIC_NAME>
2-methyl-4-(phenylmethyl)-1,2,4-thiadiazolidine-3,5-dione

> <PUBCHEM_IUPAC_TRADITIONAL_NAME>
4-benzyl-2-methyl-1,2,4-thiadiazolidine-3,5-quinone

> <PUBCHEM_IUPAC_INCHI>
InChI=1S/C10H10N2O2S/c1-11-9(13)12(10(14)15-11)7-8-5-3-2-4-6-8/h2-6H,7H2,1H3

> <PUBCHEM_IUPAC_INCHIKEY>
JDSJDASOXWCHPN-UHFFFAOYSA-N

> <PUBCHEM_XLOGP3_AA>
1.5

> <PUBCHEM_EXACT_MASS>
222.046

> <PUBCHEM_MOLECULAR_FORMULA>
C10H10N2O2S

> <PUBCHEM_MOLECULAR_WEIGHT>
222.262

> <PUBCHEM_OPENEYE_CAN_SMILES>
CN1C(=O)N(C(=O)S1)CC2=CC=CC=C2

> <PUBCHEM_OPENEYE_ISO_SMILES>
CN1C(=O)N(C(=O)S1)CC2=CC=CC=C2

> <PUBCHEM_CACTVS_TPSA>
65.9

> <PUBCHEM_MONOISOTOPIC_WEIGHT>
222.046

> <PUBCHEM_TOTAL_CHARGE>
0

> <PUBCHEM_HEAVY_ATOM_COUNT>
15

> <PUBCHEM_ATOM_DEF_STEREO_COUNT>
0

> <PUBCHEM_ATOM_UDEF_STEREO_COUNT>
0

> <PUBCHEM_BOND_DEF_STEREO_COUNT>
0

> <PUBCHEM_BOND_UDEF_STEREO_COUNT>
0

> <PUBCHEM_ISOTOPIC_ATOM_COUNT>
0

> <PUBCHEM_COMPONENT_COUNT>
1

> <PUBCHEM_CACTVS_TAUTO_COUNT>
1

> <PUBCHEM_COORDINATE_TYPE>
1
5
255

> <PUBCHEM_BONDANNOTATIONS>
1  5  8
1  9  8
10  13  8
11  14  8
13  15  8
14  15  8
4  8  8
4  9  8
5  8  8
7  10  8
7  11  8

$$$$
5330548
  -OEChem-11021605012D

 44 47  0     0  0  0  0  0  0999 V2000
    5.4641    0.2734    0.0000 O   0  0  0  0  0  0  0  0  0  0  0  0
   11.0920    2.1394    0.0000 O   0  0  0  0  0  0  0  0  0  0  0  0
    4.5981    1.7734    0.0000 O   0  0  0  0  0  0  0  0  0  0  0  0
    9.0084    2.0782    0.0000 N   0  0  0  0  0  0  0  0  0  0  0  0
   12.0807    0.3043    0.0000 N   0  0  0  0  0  0  0  0  0  0  0  0
    8.0622    0.7734    0.0000 C   0  0  0  0  0  0  0  0  0  0  0  0
    9.5920    1.2734    0.0000 C   0  0  0  0  0  0  0  0  0  0  0  0
    8.0622    1.7734    0.0000 C   0  0  0  0  0  0  0  0  0  0  0  0
   11.0920    0.4074    0.0000 C   0  0  0  0  0  0  0  0  0  0  0  0
    9.0084    0.4687    0.0000 C   0  0  0  0  0  0  0  0  0  0  0  0
   10.5920    1.2734    0.0000 C   0  0  0  0  0  0  0  0  0  0  0  0
   12.2899   -0.6675    0.0000 C   0  0  0  0  0  0  0  0  0  0  0  0
   11.4239   -1.1675    0.0000 C   0  0  0  0  0  0  0  0  0  0  0  0
   10.6869   -0.5004    0.0000 C   0  0  0  0  0  0  0  0  0  0  0  0
    7.1962    0.2734    0.0000 C   0  0  0  0  0  0  0  0  0  0  0  0
    7.1962    2.2734    0.0000 C   0  0  0  0  0  0  0  0  0  0  0  0
    6.3301    0.7734    0.0000 C   0  0  0  0  0  0  0  0  0  0  0  0
    6.3301    1.7734    0.0000 C   0  0  0  0  0  0  0  0  0  0  0  0
   13.1560   -1.1675    0.0000 C   0  0  0  0  0  0  0  0  0  0  0  0
   11.4239   -2.1675    0.0000 C   0  0  0  0  0  0  0  0  0  0  0  0
   13.1560   -2.1675    0.0000 C   0  0  0  0  0  0  0  0  0  0  0  0
   12.2899   -2.6675    0.0000 C   0  0  0  0  0  0  0  0  0  0  0  0
    3.7320    0.2734    0.0000 C   0  0  0  0  0  0  0  0  0  0  0  0
    2.8660    0.7734    0.0000 C   0  0  0  0  0  0  0  0  0  0  0  0
    4.5981    0.7734    0.0000 C   0  0  0  0  0  0  0  0  0  0  0  0
    2.0000    0.2734    0.0000 C   0  0  0  0  0  0  0  0  0  0  0  0
    9.2010   -0.1206    0.0000 H   0  0  0  0  0  0  0  0  0  0  0  0
    9.2010    2.6675    0.0000 H   0  0  0  0  0  0  0  0  0  0  0  0
   12.4948    0.7658    0.0000 H   0  0  0  0  0  0  0  0  0  0  0  0
   10.0802   -0.6282    0.0000 H   0  0  0  0  0  0  0  0  0  0  0  0
    7.1962   -0.3466    0.0000 H   0  0  0  0  0  0  0  0  0  0  0  0
    7.1962    2.8934    0.0000 H   0  0  0  0  0  0  0  0  0  0  0  0
    5.7932    2.0834    0.0000 H   0  0  0  0  0  0  0  0  0  0  0  0
   13.6929   -0.8575    0.0000 H   0  0  0  0  0  0  0  0  0  0  0  0
   10.8870   -2.4775    0.0000 H   0  0  0  0  0  0  0  0  0  0  0  0
   13.6929   -2.4775    0.0000 H   0  0  0  0  0  0  0  0  0  0  0  0
   12.2899   -3.2875    0.0000 H   0  0  0  0  0  0  0  0  0  0  0  0
    3.3335   -0.2015    0.0000 H   0  0  0  0  0  0  0  0  0  0  0  0
    4.1306   -0.2015    0.0000 H   0  0  0  0  0  0  0  0  0  0  0  0
    3.2646    1.2484    0.0000 H   0  0  0  0  0  0  0  0  0  0  0  0
    2.4675    1.2484    0.0000 H   0  0  0  0  0  0  0  0  0  0  0  0
    1.6900    0.8104    0.0000 H   0  0  0  0  0  0  0  0  0  0  0  0
    1.4631   -0.0366    0.0000 H   0  0  0  0  0  0  0  0  0  0  0  0
    2.3100   -0.2635    0.0000 H   0  0  0  0  0  0  0  0  0  0  0  0
  1 17  1  0  0  0  0
  1 25  1  0  0  0  0
  2 11  2  0  0  0  0
  3 25  2  0  0  0  0
  4  7  1  0  0  0  0
  4  8  1  0  0  0  0
  4 28  1  0  0  0  0
  5  9  1  0  0  0  0
  5 12  1  0  0  0  0
  5 29  1  0  0  0  0
  6  8  2  0  0  0  0
  6 10  1  0  0  0  0
  6 15  1  0  0  0  0
  7 10  2  0  0  0  0
  7 11  1  0  0  0  0
  8 16  1  0  0  0  0
  9 11  1  0  0  0  0
  9 14  2  0  0  0  0
 10 27  1  0  0  0  0
 12 13  1  0  0  0  0
 12 19  2  0  0  0  0
 13 14  1  0  0  0  0
 13 20  2  0  0  0  0
 14 30  1  0  0  0  0
 15 17  2  0  0  0  0
 15 31  1  0  0  0  0
 16 18  2  0  0  0  0
 16 32  1  0  0  0  0
 17 18  1  0  0  0  0
 18 33  1  0  0  0  0
 19 21  1  0  0  0  0
 19 34  1  0  0  0  0
 20 22  1  0  0  0  0
 20 35  1  0  0  0  0
 21 22  2  0  0  0  0
 21 36  1  0  0  0  0
 22 37  1  0  0  0  0
 23 24  1  0  0  0  0
 23 25  1  0  0  0  0
 23 38  1  0  0  0  0
 23 39  1  0  0  0  0
 24 26  1  0  0  0  0
 24 40  1  0  0  0  0
 24 41  1  0  0  0  0
 26 42  1  0  0  0  0
 26 43  1  0  0  0  0
 26 44  1  0  0  0  0
M  END
> <PUBCHEM_COMPOUND_CID>
5330548

> <PUBCHEM_COMPOUND_CANONICALIZED>
1

> <PUBCHEM_CACTVS_COMPLEXITY>
537

> <PUBCHEM_CACTVS_HBOND_ACCEPTOR>
3

> <PUBCHEM_CACTVS_HBOND_DONOR>
2

> <PUBCHEM_CACTVS_ROTATABLE_BOND>
6

> <PUBCHEM_CACTVS_SUBSKEYS>
AAADceB7MAAAAAAAAAAAAAAAAAAAAWLAAAAwYAAAAAAAAFgB/gAAHgAQAAAADAyBngAyzvLJlACoA6TyTACCiCAnIiAImSG2bNgMJvLE9buGOyjk0BHI6Ye42fOeAEABAAACAAAAgAIAAAQAAAAAAAAAAA==

> <PUBCHEM_IUPAC_OPENEYE_NAME>
[2-(1H-indole-2-carbonyl)-1H-indol-5-yl] butanoate

> <PUBCHEM_IUPAC_CAS_NAME>
butanoic acid [2-[1H-indol-2-yl(oxo)methyl]-1H-indol-5-yl] ester

> <PUBCHEM_IUPAC_NAME>
[2-(1H-indole-2-carbonyl)-1H-indol-5-yl] butanoate

> <PUBCHEM_IUPAC_SYSTEMATIC_NAME>
[2-(1H-indol-2-ylcarbonyl)-1H-indol-5-yl] butanoate

> <PUBCHEM_IUPAC_TRADITIONAL_NAME>
butyric acid [2-(1H-indole-2-carbonyl)-1H-indol-5-yl] ester

> <PUBCHEM_IUPAC_INCHI>
InChI=1S/C21H18N2O3/c1-2-5-20(24)26-15-8-9-17-14(10-15)12-19(23-17)21(25)18-11-13-6-3-4-7-16(13)22-18/h3-4,6-12,22-23H,2,5H2,1H3

> <PUBCHEM_IUPAC_INCHIKEY>
CZDUJGOCEPWCNA-UHFFFAOYSA-N

> <PUBCHEM_XLOGP3_AA>
4.8

> <PUBCHEM_EXACT_MASS>
346.132

> <PUBCHEM_MOLECULAR_FORMULA>
C21H18N2O3

> <PUBCHEM_MOLECULAR_WEIGHT>
346.386

> <PUBCHEM_OPENEYE_CAN_SMILES>
CCCC(=O)OC1=CC2=C(C=C1)NC(=C2)C(=O)C3=CC4=CC=CC=C4N3

> <PUBCHEM_OPENEYE_ISO_SMILES>
CCCC(=O)OC1=CC2=C(C=C1)NC(=C2)C(=O)C3=CC4=CC=CC=C4N3

> <PUBCHEM_CACTVS_TPSA>
75

> <PUBCHEM_MONOISOTOPIC_WEIGHT>
346.132

> <PUBCHEM_TOTAL_CHARGE>
0

> <PUBCHEM_HEAVY_ATOM_COUNT>
26

> <PUBCHEM_ATOM_DEF_STEREO_COUNT>
0

> <PUBCHEM_ATOM_UDEF_STEREO_COUNT>
0

> <PUBCHEM_BOND_DEF_STEREO_COUNT>
0

> <PUBCHEM_BOND_UDEF_STEREO_COUNT>
0

> <PUBCHEM_ISOTOPIC_ATOM_COUNT>
0

> <PUBCHEM_COMPONENT_COUNT>
1

> <PUBCHEM_CACTVS_TAUTO_COUNT>
41

> <PUBCHEM_COORDINATE_TYPE>
1
5
255

> <PUBCHEM_BONDANNOTATIONS>
12  13  8
12  19  8
13  14  8
13  20  8
15  17  8
16  18  8
17  18  8
19  21  8
20  22  8
21  22  8
4  7  8
4  8  8
5  12  8
5  9  8
6  10  8
6  15  8
6  8  8
7  10  8
8  16  8
9  14  8

$$$$
6918386
  -OEChem-11021605012D

 57 59  0     0  0  0  0  0  0999 V2000
    2.5369    2.0950    0.0000 O   0  0  0  0  0  0  0  0  0  0  0  0
    4.2690    5.0950    0.0000 O   0  0  0  0  0  0  0  0  0  0  0  0
    6.0010   -4.9050    0.0000 O   0  0  0  0  0  0  0  0  0  0  0  0
    8.6793    2.3997    0.0000 N   0  0  0  0  0  0  0  0  0  0  0  0
    5.1350    2.5950    0.0000 N   0  0  0  0  0  0  0  0  0  0  0  0
    6.8671    2.5950    0.0000 N   0  0  0  0  0  0  0  0  0  0  0  0
    8.6793    0.7903    0.0000 N   0  0  0  0  0  0  0  0  0  0  0  0
    6.0010    1.0950    0.0000 N   0  0  0  0  0  0  0  0  0  0  0  0
    6.8671   -0.4050    0.0000 N   0  0  0  0  0  0  0  0  0  0  0  0
    8.9900    3.3502    0.0000 C   0  0  0  0  0  0  0  0  0  0  0  0
    7.7331    2.0950    0.0000 C   0  0  0  0  0  0  0  0  0  0  0  0
    7.7331    1.0950    0.0000 C   0  0  0  0  0  0  0  0  0  0  0  0
    6.0010    2.0950    0.0000 C   0  0  0  0  0  0  0  0  0  0  0  0
    6.8671    0.5950    0.0000 C   0  0  0  0  0  0  0  0  0  0  0  0
    9.2629    1.5950    0.0000 C   0  0  0  0  0  0  0  0  0  0  0  0
    9.9685    3.5565    0.0000 C   0  0  0  0  0  0  0  0  0  0  0  0
    8.3221    4.0946    0.0000 C   0  0  0  0  0  0  0  0  0  0  0  0
    4.2690    2.0950    0.0000 C   0  0  0  0  0  0  0  0  0  0  0  0
    5.1350    3.5950    0.0000 C   0  0  0  0  0  0  0  0  0  0  0  0
    6.0010   -0.9050    0.0000 C   0  0  0  0  0  0  0  0  0  0  0  0
    3.4030    2.5950    0.0000 C   0  0  0  0  0  0  0  0  0  0  0  0
    4.2690    4.0950    0.0000 C   0  0  0  0  0  0  0  0  0  0  0  0
    6.0010   -1.9050    0.0000 C   0  0  0  0  0  0  0  0  0  0  0  0
    5.1350   -2.4050    0.0000 C   0  0  0  0  0  0  0  0  0  0  0  0
    6.8671   -2.4050    0.0000 C   0  0  0  0  0  0  0  0  0  0  0  0
    5.1350   -3.4050    0.0000 C   0  0  0  0  0  0  0  0  0  0  0  0
    6.8671   -3.4050    0.0000 C   0  0  0  0  0  0  0  0  0  0  0  0
    6.0010   -3.9050    0.0000 C   0  0  0  0  0  0  0  0  0  0  0  0
    5.1350   -5.4050    0.0000 C   0  0  0  0  0  0  0  0  0  0  0  0
    9.1826    3.9396    0.0000 H   0  0  0  0  0  0  0  0  0  0  0  0
    9.8829    1.5950    0.0000 H   0  0  0  0  0  0  0  0  0  0  0  0
   10.0963    2.9498    0.0000 H   0  0  0  0  0  0  0  0  0  0  0  0
   10.5751    3.6843    0.0000 H   0  0  0  0  0  0  0  0  0  0  0  0
    9.8406    4.1632    0.0000 H   0  0  0  0  0  0  0  0  0  0  0  0
    8.7836    4.5086    0.0000 H   0  0  0  0  0  0  0  0  0  0  0  0
    7.9081    4.5560    0.0000 H   0  0  0  0  0  0  0  0  0  0  0  0
    7.8607    3.6805    0.0000 H   0  0  0  0  0  0  0  0  0  0  0  0
    3.8705    1.6200    0.0000 H   0  0  0  0  0  0  0  0  0  0  0  0
    4.6675    1.6200    0.0000 H   0  0  0  0  0  0  0  0  0  0  0  0
    5.7456    3.4873    0.0000 H   0  0  0  0  0  0  0  0  0  0  0  0
    5.3471    4.1776    0.0000 H   0  0  0  0  0  0  0  0  0  0  0  0
    7.4040   -0.7150    0.0000 H   0  0  0  0  0  0  0  0  0  0  0  0
    5.7890   -0.3224    0.0000 H   0  0  0  0  0  0  0  0  0  0  0  0
    5.3905   -1.0127    0.0000 H   0  0  0  0  0  0  0  0  0  0  0  0
    3.8015    3.0700    0.0000 H   0  0  0  0  0  0  0  0  0  0  0  0
    3.0044    3.0700    0.0000 H   0  0  0  0  0  0  0  0  0  0  0  0
    3.6584    4.2027    0.0000 H   0  0  0  0  0  0  0  0  0  0  0  0
    4.0569    3.5124    0.0000 H   0  0  0  0  0  0  0  0  0  0  0  0
    4.5981   -2.0950    0.0000 H   0  0  0  0  0  0  0  0  0  0  0  0
    7.4040   -2.0950    0.0000 H   0  0  0  0  0  0  0  0  0  0  0  0
    4.5981   -3.7150    0.0000 H   0  0  0  0  0  0  0  0  0  0  0  0
    7.4040   -3.7150    0.0000 H   0  0  0  0  0  0  0  0  0  0  0  0
    2.0000    2.4050    0.0000 H   0  0  0  0  0  0  0  0  0  0  0  0
    3.7320    5.4050    0.0000 H   0  0  0  0  0  0  0  0  0  0  0  0
    4.8250   -4.8681    0.0000 H   0  0  0  0  0  0  0  0  0  0  0  0
    4.5981   -5.7150    0.0000 H   0  0  0  0  0  0  0  0  0  0  0  0
    5.4450   -5.9419    0.0000 H   0  0  0  0  0  0  0  0  0  0  0  0
  1 21  1  0  0  0  0
  1 53  1  0  0  0  0
  2 22  1  0  0  0  0
  2 54  1  0  0  0  0
  3 28  1  0  0  0  0
  3 29  1  0  0  0  0
  4 10  1  0  0  0  0
  4 11  1  0  0  0  0
  4 15  1  0  0  0  0
  5 13  1  0  0  0  0
  5 18  1  0  0  0  0
  5 19  1  0  0  0  0
  6 11  1  0  0  0  0
  6 13  2  0  0  0  0
  7 12  1  0  0  0  0
  7 15  2  0  0  0  0
  8 13  1  0  0  0  0
  8 14  2  0  0  0  0
  9 14  1  0  0  0  0
  9 20  1  0  0  0  0
  9 42  1  0  0  0  0
 10 16  1  0  0  0  0
 10 17  1  0  0  0  0
 10 30  1  0  0  0  0
 11 12  2  0  0  0  0
 12 14  1  0  0  0  0
 15 31  1  0  0  0  0
 16 32  1  0  0  0  0
 16 33  1  0  0  0  0
 16 34  1  0  0  0  0
 17 35  1  0  0  0  0
 17 36  1  0  0  0  0
 17 37  1  0  0  0  0
 18 21  1  0  0  0  0
 18 38  1  0  0  0  0
 18 39  1  0  0  0  0
 19 22  1  0  0  0  0
 19 40  1  0  0  0  0
 19 41  1  0  0  0  0
 20 23  1  0  0  0  0
 20 43  1  0  0  0  0
 20 44  1  0  0  0  0
 21 45  1  0  0  0  0
 21 46  1  0  0  0  0
 22 47  1  0  0  0  0
 22 48  1  0  0  0  0
 23 24  2  0  0  0  0
 23 25  1  0  0  0  0
 24 26  1  0  0  0  0
 24 49  1  0  0  0  0
 25 27  2  0  0  0  0
 25 50  1  0  0  0  0
 26 28  2  0  0  0  0
 26 51  1  0  0  0  0
 27 28  1  0  0  0  0
 27 52  1  0  0  0  0
 29 55  1  0  0  0  0
 29 56  1  0  0  0  0
 29 57  1  0  0  0  0
M  END
> <PUBCHEM_COMPOUND_CID>
6918386

> <PUBCHEM_COMPOUND_CANONICALIZED>
1

> <PUBCHEM_CACTVS_COMPLEXITY>
471

> <PUBCHEM_CACTVS_HBOND_ACCEPTOR>
8

> <PUBCHEM_CACTVS_HBOND_DONOR>
3

> <PUBCHEM_CACTVS_ROTATABLE_BOND>
10

> <PUBCHEM_CACTVS_SUBSKEYS>
AAADceB7sAAAAAAAAAAAAAAAAAAAAWAAAAA8QAAAAAAAAFgB/AAAHgAQCAAADCzhnwY39r/MFgCgAyZjZACCiC0xMKAJ2KAuXJiOfiLE+VuUNChswBPYqCeQ0AIOIAAAAAAAAABAAAAAAAAAAAAAAAAAAA==

> <PUBCHEM_IUPAC_OPENEYE_NAME>
2-[2-hydroxyethyl-[9-isopropyl-6-[(4-methoxyphenyl)methylamino]purin-2-yl]amino]ethanol

> <PUBCHEM_IUPAC_CAS_NAME>
2-[2-hydroxyethyl-[6-[(4-methoxyphenyl)methylamino]-9-propan-2-yl-2-purinyl]amino]ethanol

> <PUBCHEM_IUPAC_NAME>
2-[2-hydroxyethyl-[6-[(4-methoxyphenyl)methylamino]-9-propan-2-ylpurin-2-yl]amino]ethanol

> <PUBCHEM_IUPAC_SYSTEMATIC_NAME>
2-[2-hydroxyethyl-[6-[(4-methoxyphenyl)methylamino]-9-propan-2-yl-purin-2-yl]amino]ethanol

> <PUBCHEM_IUPAC_TRADITIONAL_NAME>
2-[2-hydroxyethyl-[9-isopropyl-6-(p-anisylamino)purin-2-yl]amino]ethanol

> <PUBCHEM_IUPAC_INCHI>
InChI=1S/C20H28N6O3/c1-14(2)26-13-22-17-18(21-12-15-4-6-16(29-3)7-5-15)23-20(24-19(17)26)25(8-10-27)9-11-28/h4-7,13-14,27-28H,8-12H2,1-3H3,(H,21,23,24)

> <PUBCHEM_IUPAC_INCHIKEY>
NQVIIUBWMBHLOZ-UHFFFAOYSA-N

> <PUBCHEM_XLOGP3_AA>
1.6

> <PUBCHEM_EXACT_MASS>
400.222

> <PUBCHEM_MOLECULAR_FORMULA>
C20H28N6O3

> <PUBCHEM_MOLECULAR_WEIGHT>
400.483

> <PUBCHEM_OPENEYE_CAN_SMILES>
CC(C)N1C=NC2=C1N=C(N=C2NCC3=CC=C(C=C3)OC)N(CCO)CCO

> <PUBCHEM_OPENEYE_ISO_SMILES>
CC(C)N1C=NC2=C1N=C(N=C2NCC3=CC=C(C=C3)OC)N(CCO)CCO

> <PUBCHEM_CACTVS_TPSA>
109

> <PUBCHEM_MONOISOTOPIC_WEIGHT>
400.222

> <PUBCHEM_TOTAL_CHARGE>
0

> <PUBCHEM_HEAVY_ATOM_COUNT>
29

> <PUBCHEM_ATOM_DEF_STEREO_COUNT>
0

> <PUBCHEM_ATOM_UDEF_STEREO_COUNT>
0

> <PUBCHEM_BOND_DEF_STEREO_COUNT>
0

> <PUBCHEM_BOND_UDEF_STEREO_COUNT>
0

> <PUBCHEM_ISOTOPIC_ATOM_COUNT>
0

> <PUBCHEM_COMPONENT_COUNT>
1

> <PUBCHEM_CACTVS_TAUTO_COUNT>
3

> <PUBCHEM_COORDINATE_TYPE>
1
5
255

> <PUBCHEM_BONDANNOTATIONS>
11  12  8
12  14  8
23  24  8
23  25  8
24  26  8
25  27  8
26  28  8
27  28  8
4  11  8
4  15  8
6  11  8
6  13  8
7  12  8
7  15  8
8  13  8
8  14  8

$$$$
6436247
  -OEChem-11021605012D

 83 84  0     1  0  0  0  0  0999 V2000
    9.1328    2.8667    0.0000 O   0  0  0  0  0  0  0  0  0  0  0  0
    7.4008    3.8667    0.0000 O   0  0  0  0  0  0  0  0  0  0  0  0
    6.9007   -0.9993    0.0000 O   0  0  0  0  0  0  0  0  0  0  0  0
    3.8100    0.2759    0.0000 O   0  0  0  0  0  0  0  0  0  0  0  0
    5.8473    0.2533    0.0000 O   0  0  0  0  0  0  0  0  0  0  0  0
    7.3271   -1.9753    0.0000 O   0  0  0  0  0  0  0  0  0  0  0  0
   10.8649   -0.1333    0.0000 O   0  0  0  0  0  0  0  0  0  0  0  0
    3.8100    2.0080    0.0000 O   0  0  0  0  0  0  0  0  0  0  0  0
    8.0192   -4.3667    0.0000 O   0  0  0  0  0  0  0  0  0  0  0  0
    9.1328   -3.1333    0.0000 N   0  0  0  0  0  0  0  0  0  0  0  0
    2.3100    1.1420    0.0000 N   0  0  0  0  0  0  0  0  0  0  0  0
    8.2668    2.3667    0.0000 C   0  0  1  0  0  0  0  0  0  0  0  0
    8.2668    1.3667    0.0000 C   0  0  0  0  0  0  0  0  0  0  0  0
    7.4008    0.8667    0.0000 C   0  0  1  0  0  0  0  0  0  0  0  0
    7.4008    2.8667    0.0000 C   0  0  1  0  0  0  0  0  0  0  0  0
    6.5347    2.3667    0.0000 C   0  0  2  0  0  0  0  0  0  0  0  0
    7.4008   -0.1333    0.0000 C   0  0  2  0  0  0  0  0  0  0  0  0
    7.4008    1.8667    0.0000 C   0  0  0  0  0  0  0  0  0  0  0  0
    6.2759    1.4008    0.0000 C   0  0  0  0  0  0  0  0  0  0  0  0
    5.7414    2.9755    0.0000 C   0  0  0  0  0  0  0  0  0  0  0  0
    8.2668   -0.6333    0.0000 C   0  0  0  0  0  0  0  0  0  0  0  0
    5.3100    1.1420    0.0000 C   0  0  0  0  0  0  0  0  0  0  0  0
    4.8100    0.2759    0.0000 C   0  0  1  0  0  0  0  0  0  0  0  0
    8.2668   -1.6333    0.0000 C   0  0  0  0  0  0  0  0  0  0  0  0
    9.1328   -0.1333    0.0000 C   0  0  0  0  0  0  0  0  0  0  0  0
    9.9988    2.3667    0.0000 C   0  0  0  0  0  0  0  0  0  0  0  0
    8.2668    4.3667    0.0000 C   0  0  0  0  0  0  0  0  0  0  0  0
    5.3100   -0.5901    0.0000 C   0  0  2  0  0  0  0  0  0  0  0  0
    4.7012    1.9353    0.0000 C   0  0  0  0  0  0  0  0  0  0  0  0
    6.0348   -0.4991    0.0000 C   0  0  0  0  0  0  0  0  0  0  0  0
    9.1328   -2.1333    0.0000 C   0  0  0  0  0  0  0  0  0  0  0  0
    9.9988   -0.6333    0.0000 C   0  0  0  0  0  0  0  0  0  0  0  0
    9.9988   -1.6333    0.0000 C   0  0  0  0  0  0  0  0  0  0  0  0
    5.0512   -1.5560    0.0000 C   0  0  0  0  0  0  0  0  0  0  0  0
    6.0171   -1.8148    0.0000 C   0  0  0  0  0  0  0  0  0  0  0  0
    3.3100    1.1420    0.0000 C   0  0  0  0  0  0  0  0  0  0  0  0
    8.2242   -3.3880    0.0000 C   0  0  0  0  0  0  0  0  0  0  0  0
    6.8464    0.2097    0.0000 C   0  0  0  0  0  0  0  0  0  0  0  0
    7.5171   -2.6808    0.0000 C   0  0  0  0  0  0  0  0  0  0  0  0
    6.5171   -2.6808    0.0000 C   0  0  0  0  0  0  0  0  0  0  0  0
    7.7660   -1.5581    0.0000 C   0  0  0  0  0  0  0  0  0  0  0  0
    8.8037    2.0567    0.0000 H   0  0  0  0  0  0  0  0  0  0  0  0
    8.4788    0.7841    0.0000 H   0  0  0  0  0  0  0  0  0  0  0  0
    8.8774    1.4744    0.0000 H   0  0  0  0  0  0  0  0  0  0  0  0
    6.7808    0.8667    0.0000 H   0  0  0  0  0  0  0  0  0  0  0  0
    6.8638    3.1767    0.0000 H   0  0  0  0  0  0  0  0  0  0  0  0
    5.9476    2.1674    0.0000 H   0  0  0  0  0  0  0  0  0  0  0  0
    6.8019    0.0272    0.0000 H   0  0  0  0  0  0  0  0  0  0  0  0
    8.0208    1.8667    0.0000 H   0  0  0  0  0  0  0  0  0  0  0  0
    7.4008    2.4867    0.0000 H   0  0  0  0  0  0  0  0  0  0  0  0
    6.7808    1.8667    0.0000 H   0  0  0  0  0  0  0  0  0  0  0  0
    6.7143    0.9624    0.0000 H   0  0  0  0  0  0  0  0  0  0  0  0
    6.1188    3.4674    0.0000 H   0  0  0  0  0  0  0  0  0  0  0  0
    5.2495    3.3529    0.0000 H   0  0  0  0  0  0  0  0  0  0  0  0
    5.3640    2.4836    0.0000 H   0  0  0  0  0  0  0  0  0  0  0  0
    4.5000   -0.2610    0.0000 H   0  0  0  0  0  0  0  0  0  0  0  0
    9.1328    0.4867    0.0000 H   0  0  0  0  0  0  0  0  0  0  0  0
    9.6888    1.8298    0.0000 H   0  0  0  0  0  0  0  0  0  0  0  0
   10.5358    2.0567    0.0000 H   0  0  0  0  0  0  0  0  0  0  0  0
   10.3088    2.9036    0.0000 H   0  0  0  0  0  0  0  0  0  0  0  0
    8.5768    3.8298    0.0000 H   0  0  0  0  0  0  0  0  0  0  0  0
    8.8037    4.6767    0.0000 H   0  0  0  0  0  0  0  0  0  0  0  0
    7.9568    4.9036    0.0000 H   0  0  0  0  0  0  0  0  0  0  0  0
    5.8775   -0.8398    0.0000 H   0  0  0  0  0  0  0  0  0  0  0  0
    5.1931    2.3128    0.0000 H   0  0  0  0  0  0  0  0  0  0  0  0
    4.3238    2.4272    0.0000 H   0  0  0  0  0  0  0  0  0  0  0  0
    4.2094    1.5579    0.0000 H   0  0  0  0  0  0  0  0  0  0  0  0
    6.3449    0.0377    0.0000 H   0  0  0  0  0  0  0  0  0  0  0  0
    5.4979   -0.1890    0.0000 H   0  0  0  0  0  0  0  0  0  0  0  0
    5.7247   -1.0360    0.0000 H   0  0  0  0  0  0  0  0  0  0  0  0
   10.5358   -1.9433    0.0000 H   0  0  0  0  0  0  0  0  0  0  0  0
    4.5142   -1.8660    0.0000 H   0  0  0  0  0  0  0  0  0  0  0  0
    9.6122   -3.5265    0.0000 H   0  0  0  0  0  0  0  0  0  0  0  0
    6.0980   -1.2001    0.0000 H   0  0  0  0  0  0  0  0  0  0  0  0
    6.8193   -0.4097    0.0000 H   0  0  0  0  0  0  0  0  0  0  0  0
    7.4658    0.1826    0.0000 H   0  0  0  0  0  0  0  0  0  0  0  0
    6.8734    0.8291    0.0000 H   0  0  0  0  0  0  0  0  0  0  0  0
    6.2071   -3.2178    0.0000 H   0  0  0  0  0  0  0  0  0  0  0  0
    8.3713   -1.6923    0.0000 H   0  0  0  0  0  0  0  0  0  0  0  0
    7.9002   -0.9528    0.0000 H   0  0  0  0  0  0  0  0  0  0  0  0
    7.1607   -1.4239    0.0000 H   0  0  0  0  0  0  0  0  0  0  0  0
    2.0000    1.6789    0.0000 H   0  0  0  0  0  0  0  0  0  0  0  0
    2.0000    0.6050    0.0000 H   0  0  0  0  0  0  0  0  0  0  0  0
 12  1  1  1  0  0  0
  1 26  1  0  0  0  0
 15  2  1  1  0  0  0
  2 27  1  0  0  0  0
 17  3  1  6  0  0  0
  3 30  1  0  0  0  0
 23  4  1  1  0  0  0
  4 36  1  0  0  0  0
 28  5  1  1  0  0  0
  5 38  1  0  0  0  0
  6 24  2  0  0  0  0
  7 32  2  0  0  0  0
  8 36  2  0  0  0  0
  9 37  2  0  0  0  0
 10 31  1  0  0  0  0
 10 37  1  0  0  0  0
 10 73  1  0  0  0  0
 11 36  1  0  0  0  0
 11 82  1  0  0  0  0
 11 83  1  0  0  0  0
 12 13  1  0  0  0  0
 12 15  1  0  0  0  0
 12 42  1  0  0  0  0
 13 14  1  0  0  0  0
 13 43  1  0  0  0  0
 13 44  1  0  0  0  0
 14 17  1  0  0  0  0
 14 18  1  1  0  0  0
 14 45  1  0  0  0  0
 15 16  1  0  0  0  0
 15 46  1  0  0  0  0
 16 19  1  0  0  0  0
 16 20  1  6  0  0  0
 16 47  1  0  0  0  0
 17 21  1  0  0  0  0
 17 48  1  0  0  0  0
 18 49  1  0  0  0  0
 18 50  1  0  0  0  0
 18 51  1  0  0  0  0
 19 22  2  0  0  0  0
 19 52  1  0  0  0  0
 20 53  1  0  0  0  0
 20 54  1  0  0  0  0
 20 55  1  0  0  0  0
 21 24  1  0  0  0  0
 21 25  2  0  0  0  0
 22 23  1  0  0  0  0
 22 29  1  0  0  0  0
 23 28  1  0  0  0  0
 23 56  1  0  0  0  0
 24 31  1  0  0  0  0
 25 32  1  0  0  0  0
 25 57  1  0  0  0  0
 26 58  1  0  0  0  0
 26 59  1  0  0  0  0
 26 60  1  0  0  0  0
 27 61  1  0  0  0  0
 27 62  1  0  0  0  0
 27 63  1  0  0  0  0
 28 34  1  0  0  0  0
 28 64  1  0  0  0  0
 29 65  1  0  0  0  0
 29 66  1  0  0  0  0
 29 67  1  0  0  0  0
 30 68  1  0  0  0  0
 30 69  1  0  0  0  0
 30 70  1  0  0  0  0
 31 33  2  0  0  0  0
 32 33  1  0  0  0  0
 33 71  1  0  0  0  0
 34 35  2  0  0  0  0
 34 72  1  0  0  0  0
 35 40  1  0  0  0  0
 35 74  1  0  0  0  0
 37 39  1  0  0  0  0
 38 75  1  0  0  0  0
 38 76  1  0  0  0  0
 38 77  1  0  0  0  0
 39 40  2  0  0  0  0
 39 41  1  0  0  0  0
 40 78  1  0  0  0  0
 41 79  1  0  0  0  0
 41 80  1  0  0  0  0
 41 81  1  0  0  0  0
M  END
> <PUBCHEM_COMPOUND_CID>
6436247

> <PUBCHEM_COMPOUND_CANONICALIZED>
1

> <PUBCHEM_CACTVS_COMPLEXITY>
1150

> <PUBCHEM_CACTVS_HBOND_ACCEPTOR>
9

> <PUBCHEM_CACTVS_HBOND_DONOR>
2

> <PUBCHEM_CACTVS_ROTATABLE_BOND>
6

> <PUBCHEM_CACTVS_SUBSKEYS>
AAADcfB7PAAAAAAAAAAAAAAAAAAAAAAAAAAgAAAAAAAAAAAAAAAAHgAQAAAADRyhgAICCALABACIAqVSWACAAAAgAgAICAGAAEkJBBYAoSAMEAAE5ACKocP46OyOAAAAAAAAAAAAAAAAAAAAAAAAAAAAAA==

> <PUBCHEM_IUPAC_OPENEYE_NAME>
[(2R,3S,5S,6R,7S,8E,10S,11S,12E,14E)-2,5,6,11-tetramethoxy-3,7,9,15-tetramethyl-16,20,22-trioxo-17-azabicyclo[16.3.1]docosa-1(21),8,12,14,18-pentaen-10-yl] carbamate

> <PUBCHEM_IUPAC_CAS_NAME>
carbamic acid [(2R,3S,5S,6R,7S,8E,10S,11S,12E,14E)-2,5,6,11-tetramethoxy-3,7,9,15-tetramethyl-16,20,22-trioxo-17-azabicyclo[16.3.1]docosa-1(21),8,12,14,18-pentaen-10-yl] ester

> <PUBCHEM_IUPAC_NAME>
[(2R,3S,5S,6R,7S,8E,10S,11S,12E,14E)-2,5,6,11-tetramethoxy-3,7,9,15-tetramethyl-16,20,22-trioxo-17-azabicyclo[16.3.1]docosa-1(21),8,12,14,18-pentaen-10-yl] carbamate

> <PUBCHEM_IUPAC_SYSTEMATIC_NAME>
[(2R,3S,5S,6R,7S,8E,10S,11S,12E,14E)-2,5,6,11-tetramethoxy-3,7,9,15-tetramethyl-16,20,22-tris(oxidanylidene)-17-azabicyclo[16.3.1]docosa-1(21),8,12,14,18-pentaen-10-yl] carbamate

> <PUBCHEM_IUPAC_TRADITIONAL_NAME>
carbamic acid [(2R,3S,5S,6R,7S,8E,10S,11S,12E,14E)-16,20,22-triketo-2,5,6,11-tetramethoxy-3,7,9,15-tetramethyl-17-azabicyclo[16.3.1]docosa-1(21),8,12,14,18-pentaen-10-yl] ester

> <PUBCHEM_IUPAC_INCHI>
InChI=1S/C30H42N2O9/c1-16-10-9-11-23(37-5)28(41-30(31)36)18(3)12-17(2)27(40-8)24(38-6)13-19(4)26(39-7)21-14-20(33)15-22(25(21)34)32-29(16)35/h9-12,14-15,17,19,23-24,26-28H,13H2,1-8H3,(H2,31,36)(H,32,35)/b11-9+,16-10+,18-12+/t17-,19-,23-,24-,26+,27+,28-/m0/s1

> <PUBCHEM_IUPAC_INCHIKEY>
MCAHMSDENAOJFZ-GDYSMBPZSA-N

> <PUBCHEM_XLOGP3_AA>
1.8

> <PUBCHEM_EXACT_MASS>
574.289

> <PUBCHEM_MOLECULAR_FORMULA>
C30H42N2O9

> <PUBCHEM_MOLECULAR_WEIGHT>
574.671

> <PUBCHEM_OPENEYE_CAN_SMILES>
CC1CC(C(C(C=C(C(C(C=CC=C(C(=O)NC2=CC(=O)C=C(C1OC)C2=O)C)OC)OC(=O)N)C)C)OC)OC

> <PUBCHEM_OPENEYE_ISO_SMILES>
C[C@H]1C[C@@H]([C@@H]([C@H](/C=C(/[C@@H]([C@H](/C=C/C=C(/C(=O)NC2=CC(=O)C=C([C@@H]1OC)C2=O)\C)OC)OC(=O)N)\C)C)OC)OC

> <PUBCHEM_CACTVS_TPSA>
153

> <PUBCHEM_MONOISOTOPIC_WEIGHT>
574.289

> <PUBCHEM_TOTAL_CHARGE>
0

> <PUBCHEM_HEAVY_ATOM_COUNT>
41

> <PUBCHEM_ATOM_DEF_STEREO_COUNT>
7

> <PUBCHEM_ATOM_UDEF_STEREO_COUNT>
0

> <PUBCHEM_BOND_DEF_STEREO_COUNT>
3

> <PUBCHEM_BOND_UDEF_STEREO_COUNT>
0

> <PUBCHEM_ISOTOPIC_ATOM_COUNT>
0

> <PUBCHEM_COMPONENT_COUNT>
1

> <PUBCHEM_CACTVS_TAUTO_COUNT>
8

> <PUBCHEM_COORDINATE_TYPE>
1
5
255

> <PUBCHEM_BONDANNOTATIONS>
12  1  5
14  18  5
16  20  6
15  2  5
17  3  6
23  4  5
28  5  5

$$$$
5353678
  -OEChem-11021605012D

 40 42  0     0  0  0  0  0  0999 V2000
    7.0083   -1.3170    0.0000 O   0  0  0  0  0  0  0  0  0  0  0  0
    5.6103    2.0499    0.0000 O   0  0  0  0  0  0  0  0  0  0  0  0
    6.0279   -2.2492    0.0000 O   0  0  0  0  0  0  0  0  0  0  0  0
    8.9030    0.9737    0.0000 O   0  0  0  0  0  0  0  0  0  0  0  0
    4.6783   -2.4111    0.0000 N   0  0  0  0  0  0  0  0  0  0  0  0
    4.6783   -0.8016    0.0000 C   0  0  0  0  0  0  0  0  0  0  0  0
    3.7320   -1.1064    0.0000 C   0  0  0  0  0  0  0  0  0  0  0  0
    3.7320   -2.1064    0.0000 C   0  0  0  0  0  0  0  0  0  0  0  0
    5.9674    0.3551    0.0000 C   0  0  0  0  0  0  0  0  0  0  0  0
    4.9889    0.1489    0.0000 C   0  0  0  0  0  0  0  0  0  0  0  0
    5.2619   -1.6064    0.0000 C   0  0  0  0  0  0  0  0  0  0  0  0
    2.8660   -0.6064    0.0000 C   0  0  0  0  0  0  0  0  0  0  0  0
    6.6353   -0.3892    0.0000 C   0  0  0  0  0  0  0  0  0  0  0  0
    6.2781    1.3056    0.0000 C   0  0  0  0  0  0  0  0  0  0  0  0
    2.8660   -2.6064    0.0000 C   0  0  0  0  0  0  0  0  0  0  0  0
    2.0000   -1.1064    0.0000 C   0  0  0  0  0  0  0  0  0  0  0  0
    7.6138   -0.1830    0.0000 C   0  0  0  0  0  0  0  0  0  0  0  0
    7.2566    1.5118    0.0000 C   0  0  0  0  0  0  0  0  0  0  0  0
    2.0000   -2.1064    0.0000 C   0  0  0  0  0  0  0  0  0  0  0  0
    7.9244    0.7675    0.0000 C   0  0  0  0  0  0  0  0  0  0  0  0
    7.9983   -1.4579    0.0000 C   0  0  0  0  0  0  0  0  0  0  0  0
    5.9209    3.0004    0.0000 C   0  0  0  0  0  0  0  0  0  0  0  0
    9.2136    1.9243    0.0000 C   0  0  0  0  0  0  0  0  0  0  0  0
    4.5749    0.6103    0.0000 H   0  0  0  0  0  0  0  0  0  0  0  0
    4.8709   -3.0004    0.0000 H   0  0  0  0  0  0  0  0  0  0  0  0
    2.8660    0.0136    0.0000 H   0  0  0  0  0  0  0  0  0  0  0  0
    2.8660   -3.2264    0.0000 H   0  0  0  0  0  0  0  0  0  0  0  0
    8.0279   -0.6445    0.0000 H   0  0  0  0  0  0  0  0  0  0  0  0
    7.4492    2.1012    0.0000 H   0  0  0  0  0  0  0  0  0  0  0  0
    1.4631   -0.7964    0.0000 H   0  0  0  0  0  0  0  0  0  0  0  0
    1.4631   -2.4164    0.0000 H   0  0  0  0  0  0  0  0  0  0  0  0
    7.9109   -2.0717    0.0000 H   0  0  0  0  0  0  0  0  0  0  0  0
    8.6121   -1.5453    0.0000 H   0  0  0  0  0  0  0  0  0  0  0  0
    8.0857   -0.8441    0.0000 H   0  0  0  0  0  0  0  0  0  0  0  0
    6.5102    2.8078    0.0000 H   0  0  0  0  0  0  0  0  0  0  0  0
    6.1135    3.5898    0.0000 H   0  0  0  0  0  0  0  0  0  0  0  0
    5.3316    3.1930    0.0000 H   0  0  0  0  0  0  0  0  0  0  0  0
    9.8029    1.7317    0.0000 H   0  0  0  0  0  0  0  0  0  0  0  0
    9.4062    2.5136    0.0000 H   0  0  0  0  0  0  0  0  0  0  0  0
    8.6243    2.1169    0.0000 H   0  0  0  0  0  0  0  0  0  0  0  0
  1 13  1  0  0  0  0
  1 21  1  0  0  0  0
  2 14  1  0  0  0  0
  2 22  1  0  0  0  0
  3 11  2  0  0  0  0
  4 20  1  0  0  0  0
  4 23  1  0  0  0  0
  5  8  1  0  0  0  0
  5 11  1  0  0  0  0
  5 25  1  0  0  0  0
  6  7  1  0  0  0  0
  6 10  2  0  0  0  0
  6 11  1  0  0  0  0
  7  8  1  0  0  0  0
  7 12  2  0  0  0  0
  8 15  2  0  0  0  0
  9 10  1  0  0  0  0
  9 13  2  0  0  0  0
  9 14  1  0  0  0  0
 10 24  1  0  0  0  0
 12 16  1  0  0  0  0
 12 26  1  0  0  0  0
 13 17  1  0  0  0  0
 14 18  2  0  0  0  0
 15 19  1  0  0  0  0
 15 27  1  0  0  0  0
 16 19  2  0  0  0  0
 16 30  1  0  0  0  0
 17 20  2  0  0  0  0
 17 28  1  0  0  0  0
 18 20  1  0  0  0  0
 18 29  1  0  0  0  0
 19 31  1  0  0  0  0
 21 32  1  0  0  0  0
 21 33  1  0  0  0  0
 21 34  1  0  0  0  0
 22 35  1  0  0  0  0
 22 36  1  0  0  0  0
 22 37  1  0  0  0  0
 23 38  1  0  0  0  0
 23 39  1  0  0  0  0
 23 40  1  0  0  0  0
M  END
> <PUBCHEM_COMPOUND_CID>
5353678

> <PUBCHEM_COMPOUND_CANONICALIZED>
1

> <PUBCHEM_CACTVS_COMPLEXITY>
450

> <PUBCHEM_CACTVS_HBOND_ACCEPTOR>
4

> <PUBCHEM_CACTVS_HBOND_DONOR>
1

> <PUBCHEM_CACTVS_ROTATABLE_BOND>
4

> <PUBCHEM_CACTVS_SUBSKEYS>
AAADceB6OAAAAAAAAAAAAAAAAAAAAWAAAAAwYAAAAAAAAFgBQAAAHgAQAAAADAyBmAIyxoLABACIAiVSUACCCAAhIgAIiAEGbMgMJzLEtZuEMChl1BXI6Yec6KyOIAAACAAKAABAAAAQABQAAAAAAAAAAA==

> <PUBCHEM_IUPAC_OPENEYE_NAME>
(3Z)-3-[(2,4,6-trimethoxyphenyl)methylene]indolin-2-one

> <PUBCHEM_IUPAC_CAS_NAME>
(3Z)-3-[(2,4,6-trimethoxyphenyl)methylidene]-1H-indol-2-one

> <PUBCHEM_IUPAC_NAME>
(3Z)-3-[(2,4,6-trimethoxyphenyl)methylidene]-1H-indol-2-one

> <PUBCHEM_IUPAC_SYSTEMATIC_NAME>
(3Z)-3-[(2,4,6-trimethoxyphenyl)methylidene]-1H-indol-2-one

> <PUBCHEM_IUPAC_TRADITIONAL_NAME>
(3Z)-3-(2,4,6-trimethoxybenzylidene)oxindole

> <PUBCHEM_IUPAC_INCHI>
InChI=1S/C18H17NO4/c1-21-11-8-16(22-2)14(17(9-11)23-3)10-13-12-6-4-5-7-15(12)19-18(13)20/h4-10H,1-3H3,(H,19,20)/b13-10-

> <PUBCHEM_IUPAC_INCHIKEY>
JBJYTZXCZDNOJW-RAXLEYEMSA-N

> <PUBCHEM_XLOGP3_AA>
2.8

> <PUBCHEM_EXACT_MASS>
311.116

> <PUBCHEM_MOLECULAR_FORMULA>
C18H17NO4

> <PUBCHEM_MOLECULAR_WEIGHT>
311.337

> <PUBCHEM_OPENEYE_CAN_SMILES>
COC1=CC(=C(C(=C1)OC)C=C2C3=CC=CC=C3NC2=O)OC

> <PUBCHEM_OPENEYE_ISO_SMILES>
COC1=CC(=C(C(=C1)OC)/C=C\2/C3=CC=CC=C3NC2=O)OC

> <PUBCHEM_CACTVS_TPSA>
56.8

> <PUBCHEM_MONOISOTOPIC_WEIGHT>
311.116

> <PUBCHEM_TOTAL_CHARGE>
0

> <PUBCHEM_HEAVY_ATOM_COUNT>
23

> <PUBCHEM_ATOM_DEF_STEREO_COUNT>
0

> <PUBCHEM_ATOM_UDEF_STEREO_COUNT>
0

> <PUBCHEM_BOND_DEF_STEREO_COUNT>
1

> <PUBCHEM_BOND_UDEF_STEREO_COUNT>
0

> <PUBCHEM_ISOTOPIC_ATOM_COUNT>
0

> <PUBCHEM_COMPONENT_COUNT>
1

> <PUBCHEM_CACTVS_TAUTO_COUNT>
2

> <PUBCHEM_COORDINATE_TYPE>
1
5
255

> <PUBCHEM_BONDANNOTATIONS>
12  16  8
13  17  8
14  18  8
15  19  8
16  19  8
17  20  8
18  20  8
7  12  8
7  8  8
8  15  8
9  13  8
9  14  8

$$$$
2044
  -OEChem-11021605012D

 31 31  0     0  0  0  0  0  0999 V2000
    2.5369   -1.0000    0.0000 Br  0  0  0  0  0  0  0  0  0  0  0  0
    2.5369    1.0000    0.0000 O   0  0  0  0  0  0  0  0  0  0  0  0
    4.2690   -3.0000    0.0000 N   0  0  0  0  0  0  0  0  0  0  0  0
    7.7331   -3.0000    0.0000 N   0  0  0  0  0  0  0  0  0  0  0  0
    4.2690    2.0000    0.0000 C   0  0  0  0  0  0  0  0  0  0  0  0
    4.2690    1.0000    0.0000 C   0  0  0  0  0  0  0  0  0  0  0  0
    4.2690    3.0000    0.0000 C   0  0  0  0  0  0  0  0  0  0  0  0
    5.2690    2.0000    0.0000 C   0  0  0  0  0  0  0  0  0  0  0  0
    3.2690    2.0000    0.0000 C   0  0  0  0  0  0  0  0  0  0  0  0
    5.1350    0.5000    0.0000 C   0  0  0  0  0  0  0  0  0  0  0  0
    3.4030    0.5000    0.0000 C   0  0  0  0  0  0  0  0  0  0  0  0
    5.1350   -0.5000    0.0000 C   0  0  0  0  0  0  0  0  0  0  0  0
    3.4030   -0.5000    0.0000 C   0  0  0  0  0  0  0  0  0  0  0  0
    4.2690   -1.0000    0.0000 C   0  0  0  0  0  0  0  0  0  0  0  0
    6.0010   -1.0000    0.0000 C   0  0  0  0  0  0  0  0  0  0  0  0
    6.0010   -2.0000    0.0000 C   0  0  0  0  0  0  0  0  0  0  0  0
    6.8671   -2.5000    0.0000 C   0  0  0  0  0  0  0  0  0  0  0  0
    5.1350   -2.5000    0.0000 C   0  0  0  0  0  0  0  0  0  0  0  0
    3.2690    2.6200    0.0000 H   0  0  0  0  0  0  0  0  0  0  0  0
    2.6490    2.0000    0.0000 H   0  0  0  0  0  0  0  0  0  0  0  0
    5.2690    1.3800    0.0000 H   0  0  0  0  0  0  0  0  0  0  0  0
    5.8890    2.0000    0.0000 H   0  0  0  0  0  0  0  0  0  0  0  0
    5.2690    2.6200    0.0000 H   0  0  0  0  0  0  0  0  0  0  0  0
    4.8890    3.0000    0.0000 H   0  0  0  0  0  0  0  0  0  0  0  0
    4.2690    3.6200    0.0000 H   0  0  0  0  0  0  0  0  0  0  0  0
    3.6490    3.0000    0.0000 H   0  0  0  0  0  0  0  0  0  0  0  0
    3.2690    1.3800    0.0000 H   0  0  0  0  0  0  0  0  0  0  0  0
    5.6720    0.8100    0.0000 H   0  0  0  0  0  0  0  0  0  0  0  0
    4.2690   -1.6200    0.0000 H   0  0  0  0  0  0  0  0  0  0  0  0
    6.5380   -0.6900    0.0000 H   0  0  0  0  0  0  0  0  0  0  0  0
    2.0000    0.6900    0.0000 H   0  0  0  0  0  0  0  0  0  0  0  0
  1 13  1  0  0  0  0
  2 11  1  0  0  0  0
  2 31  1  0  0  0  0
  3 18  3  0  0  0  0
  4 17  3  0  0  0  0
  5  6  1  0  0  0  0
  5  7  1  0  0  0  0
  5  8  1  0  0  0  0
  5  9  1  0  0  0  0
  6 10  1  0  0  0  0
  6 11  2  0  0  0  0
  7 24  1  0  0  0  0
  7 25  1  0  0  0  0
  7 26  1  0  0  0  0
  8 21  1  0  0  0  0
  8 22  1  0  0  0  0
  8 23  1  0  0  0  0
  9 19  1  0  0  0  0
  9 20  1  0  0  0  0
  9 27  1  0  0  0  0
 10 12  2  0  0  0  0
 10 28  1  0  0  0  0
 11 13  1  0  0  0  0
 12 14  1  0  0  0  0
 12 15  1  0  0  0  0
 13 14  2  0  0  0  0
 14 29  1  0  0  0  0
 15 16  2  0  0  0  0
 15 30  1  0  0  0  0
 16 17  1  0  0  0  0
 16 18  1  0  0  0  0
M  END
> <PUBCHEM_COMPOUND_CID>
2044

> <PUBCHEM_COMPOUND_CANONICALIZED>
1

> <PUBCHEM_CACTVS_COMPLEXITY>
414

> <PUBCHEM_CACTVS_HBOND_ACCEPTOR>
3

> <PUBCHEM_CACTVS_HBOND_DONOR>
1

> <PUBCHEM_CACTVS_ROTATABLE_BOND>
2

> <PUBCHEM_CACTVS_SUBSKEYS>
AAADccBzIAAAEAAAAAAAAAAAAAAAAAAAAAAwAAAAAAAAAAABAAAAHgBACAABrgSBmAAyBoAAAgCQBiBCAAAiAAAgIAQAiAAECKgIpiKCERKAcAAkwBEImheAwOAPoAACEAAIBABAAAQgABAIAAAAAAAAAA==

> <PUBCHEM_IUPAC_OPENEYE_NAME>
2-[(3-bromo-5-tert-butyl-4-hydroxy-phenyl)methylene]propanedinitrile

> <PUBCHEM_IUPAC_CAS_NAME>
2-[(3-bromo-5-tert-butyl-4-hydroxyphenyl)methylidene]propanedinitrile

> <PUBCHEM_IUPAC_NAME>
2-[(3-bromo-5-tert-butyl-4-hydroxyphenyl)methylidene]propanedinitrile

> <PUBCHEM_IUPAC_SYSTEMATIC_NAME>
2-[(3-bromanyl-5-tert-butyl-4-oxidanyl-phenyl)methylidene]propanedinitrile

> <PUBCHEM_IUPAC_TRADITIONAL_NAME>
2-(3-bromo-5-tert-butyl-4-hydroxy-benzylidene)malononitrile

> <PUBCHEM_IUPAC_INCHI>
InChI=1S/C14H13BrN2O/c1-14(2,3)11-5-9(4-10(7-16)8-17)6-12(15)13(11)18/h4-6,18H,1-3H3

> <PUBCHEM_IUPAC_INCHIKEY>
ABBADGFSRBWENF-UHFFFAOYSA-N

> <PUBCHEM_XLOGP3_AA>
4

> <PUBCHEM_EXACT_MASS>
304.021

> <PUBCHEM_MOLECULAR_FORMULA>
C14H13BrN2O

> <PUBCHEM_MOLECULAR_WEIGHT>
305.175

> <PUBCHEM_OPENEYE_CAN_SMILES>
CC(C)(C)C1=C(C(=CC(=C1)C=C(C#N)C#N)Br)O

> <PUBCHEM_OPENEYE_ISO_SMILES>
CC(C)(C)C1=C(C(=CC(=C1)C=C(C#N)C#N)Br)O

> <PUBCHEM_CACTVS_TPSA>
67.8

> <PUBCHEM_MONOISOTOPIC_WEIGHT>
304.021

> <PUBCHEM_TOTAL_CHARGE>
0

> <PUBCHEM_HEAVY_ATOM_COUNT>
18

> <PUBCHEM_ATOM_DEF_STEREO_COUNT>
0

> <PUBCHEM_ATOM_UDEF_STEREO_COUNT>
0

> <PUBCHEM_BOND_DEF_STEREO_COUNT>
0

> <PUBCHEM_BOND_UDEF_STEREO_COUNT>
0

> <PUBCHEM_ISOTOPIC_ATOM_COUNT>
0

> <PUBCHEM_COMPONENT_COUNT>
1

> <PUBCHEM_CACTVS_TAUTO_COUNT>
4

> <PUBCHEM_COORDINATE_TYPE>
1
5
255

> <PUBCHEM_BONDANNOTATIONS>
10  12  8
11  13  8
12  14  8
13  14  8
6  10  8
6  11  8

$$$$
9549303
  -OEChem-11021605012D

 48 51  0     0  0  0  0  0  0999 V2000
    2.0000   -4.0670    0.0000 F   0  0  0  0  0  0  0  0  0  0  0  0
    3.3660   -4.4330    0.0000 F   0  0  0  0  0  0  0  0  0  0  0  0
    2.3660   -2.7010    0.0000 F   0  0  0  0  0  0  0  0  0  0  0  0
   10.6603    3.9330    0.0000 O   0  0  0  0  0  0  0  0  0  0  0  0
    9.7942    2.4330    0.0000 N   0  0  0  0  0  0  0  0  0  0  0  0
    6.3301    2.4330    0.0000 N   0  0  0  0  0  0  0  0  0  0  0  0
    4.5981   -0.5670    0.0000 N   0  0  0  0  0  0  0  0  0  0  0  0
    5.4641    0.9330    0.0000 N   0  0  0  0  0  0  0  0  0  0  0  0
    7.1962    0.9330    0.0000 N   0  0  0  0  0  0  0  0  0  0  0  0
   11.5263    2.4330    0.0000 C   0  0  0  0  0  0  0  0  0  0  0  0
   12.0263    1.5670    0.0000 C   0  0  0  0  0  0  0  0  0  0  0  0
   12.5263    2.4330    0.0000 C   0  0  0  0  0  0  0  0  0  0  0  0
   10.6603    2.9330    0.0000 C   0  0  0  0  0  0  0  0  0  0  0  0
    8.9282    2.9330    0.0000 C   0  0  0  0  0  0  0  0  0  0  0  0
    8.0622    2.4330    0.0000 C   0  0  0  0  0  0  0  0  0  0  0  0
    8.9282    3.9330    0.0000 C   0  0  0  0  0  0  0  0  0  0  0  0
    7.1962    2.9330    0.0000 C   0  0  0  0  0  0  0  0  0  0  0  0
    8.0622    4.4330    0.0000 C   0  0  0  0  0  0  0  0  0  0  0  0
    7.1962    3.9330    0.0000 C   0  0  0  0  0  0  0  0  0  0  0  0
    6.3301    1.4330    0.0000 C   0  0  0  0  0  0  0  0  0  0  0  0
    4.5981   -1.5670    0.0000 C   0  0  0  0  0  0  0  0  0  0  0  0
    5.4641   -0.0670    0.0000 C   0  0  0  0  0  0  0  0  0  0  0  0
    3.7320   -3.0670    0.0000 C   0  0  0  0  0  0  0  0  0  0  0  0
    3.7320   -2.0670    0.0000 C   0  0  0  0  0  0  0  0  0  0  0  0
    5.4641   -2.0670    0.0000 C   0  0  0  0  0  0  0  0  0  0  0  0
    4.5981   -3.5670    0.0000 C   0  0  0  0  0  0  0  0  0  0  0  0
    5.4641   -3.0670    0.0000 C   0  0  0  0  0  0  0  0  0  0  0  0
    6.3301   -0.5670    0.0000 C   0  0  0  0  0  0  0  0  0  0  0  0
    2.8660   -3.5670    0.0000 C   0  0  0  0  0  0  0  0  0  0  0  0
    7.1962   -0.0670    0.0000 C   0  0  0  0  0  0  0  0  0  0  0  0
   11.0879    1.9946    0.0000 H   0  0  0  0  0  0  0  0  0  0  0  0
   11.5513    1.1685    0.0000 H   0  0  0  0  0  0  0  0  0  0  0  0
   12.5012    1.1685    0.0000 H   0  0  0  0  0  0  0  0  0  0  0  0
   13.1089    2.2210    0.0000 H   0  0  0  0  0  0  0  0  0  0  0  0
   12.6339    3.0436    0.0000 H   0  0  0  0  0  0  0  0  0  0  0  0
    9.7942    1.8130    0.0000 H   0  0  0  0  0  0  0  0  0  0  0  0
    8.0622    1.8130    0.0000 H   0  0  0  0  0  0  0  0  0  0  0  0
    9.4651    4.2430    0.0000 H   0  0  0  0  0  0  0  0  0  0  0  0
    8.0622    5.0530    0.0000 H   0  0  0  0  0  0  0  0  0  0  0  0
    6.6592    4.2430    0.0000 H   0  0  0  0  0  0  0  0  0  0  0  0
    5.7932    2.7430    0.0000 H   0  0  0  0  0  0  0  0  0  0  0  0
    3.1951   -1.7570    0.0000 H   0  0  0  0  0  0  0  0  0  0  0  0
    4.0611   -0.2570    0.0000 H   0  0  0  0  0  0  0  0  0  0  0  0
    6.0010   -1.7570    0.0000 H   0  0  0  0  0  0  0  0  0  0  0  0
    4.5981   -4.1870    0.0000 H   0  0  0  0  0  0  0  0  0  0  0  0
    6.0010   -3.3770    0.0000 H   0  0  0  0  0  0  0  0  0  0  0  0
    6.3301   -1.1870    0.0000 H   0  0  0  0  0  0  0  0  0  0  0  0
    7.7331   -0.3770    0.0000 H   0  0  0  0  0  0  0  0  0  0  0  0
  1 29  1  0  0  0  0
  2 29  1  0  0  0  0
  3 29  1  0  0  0  0
  4 13  2  0  0  0  0
  5 13  1  0  0  0  0
  5 14  1  0  0  0  0
  5 36  1  0  0  0  0
  6 17  1  0  0  0  0
  6 20  1  0  0  0  0
  6 41  1  0  0  0  0
  7 21  1  0  0  0  0
  7 22  1  0  0  0  0
  7 43  1  0  0  0  0
  8 20  1  0  0  0  0
  8 22  2  0  0  0  0
  9 20  2  0  0  0  0
  9 30  1  0  0  0  0
 10 11  1  0  0  0  0
 10 12  1  0  0  0  0
 10 13  1  0  0  0  0
 10 31  1  0  0  0  0
 11 12  1  0  0  0  0
 11 32  1  0  0  0  0
 11 33  1  0  0  0  0
 12 34  1  0  0  0  0
 12 35  1  0  0  0  0
 14 15  1  0  0  0  0
 14 16  2  0  0  0  0
 15 17  2  0  0  0  0
 15 37  1  0  0  0  0
 16 18  1  0  0  0  0
 16 38  1  0  0  0  0
 17 19  1  0  0  0  0
 18 19  2  0  0  0  0
 18 39  1  0  0  0  0
 19 40  1  0  0  0  0
 21 24  1  0  0  0  0
 21 25  2  0  0  0  0
 22 28  1  0  0  0  0
 23 24  2  0  0  0  0
 23 26  1  0  0  0  0
 23 29  1  0  0  0  0
 24 42  1  0  0  0  0
 25 27  1  0  0  0  0
 25 44  1  0  0  0  0
 26 27  2  0  0  0  0
 26 45  1  0  0  0  0
 27 46  1  0  0  0  0
 28 30  2  0  0  0  0
 28 47  1  0  0  0  0
 30 48  1  0  0  0  0
M  END
> <PUBCHEM_COMPOUND_CID>
9549303

> <PUBCHEM_COMPOUND_CANONICALIZED>
1

> <PUBCHEM_CACTVS_COMPLEXITY>
586

> <PUBCHEM_CACTVS_HBOND_ACCEPTOR>
8

> <PUBCHEM_CACTVS_HBOND_DONOR>
3

> <PUBCHEM_CACTVS_ROTATABLE_BOND>
6

> <PUBCHEM_CACTVS_SUBSKEYS>
AAADceB7oYAAAAAAAAAAAAAAGAAAAAAAAAA8YIAAAAAAAAAB0AAAHwAQAAAADQjBmhQ98JbIEACoAjd3dACCgCkxAqAJ2CE4ZJiIKPLA2dGEJAholALIyCcQgAAOAAAAQAQAAAAAAACACAAAAAAAAAAAAA==

> <PUBCHEM_IUPAC_OPENEYE_NAME>
N-[3-[[4-[3-(trifluoromethyl)anilino]pyrimidin-2-yl]amino]phenyl]cyclopropanecarboxamide

> <PUBCHEM_IUPAC_CAS_NAME>
N-[3-[[4-[3-(trifluoromethyl)anilino]-2-pyrimidinyl]amino]phenyl]cyclopropanecarboxamide

> <PUBCHEM_IUPAC_NAME>
N-[3-[[4-[3-(trifluoromethyl)anilino]pyrimidin-2-yl]amino]phenyl]cyclopropanecarboxamide

> <PUBCHEM_IUPAC_SYSTEMATIC_NAME>
N-[3-[[4-[[3-(trifluoromethyl)phenyl]amino]pyrimidin-2-yl]amino]phenyl]cyclopropanecarboxamide

> <PUBCHEM_IUPAC_TRADITIONAL_NAME>
N-[3-[[4-[3-(trifluoromethyl)anilino]pyrimidin-2-yl]amino]phenyl]cyclopropanecarboxamide

> <PUBCHEM_IUPAC_INCHI>
InChI=1S/C21H18F3N5O/c22-21(23,24)14-3-1-4-15(11-14)26-18-9-10-25-20(29-18)28-17-6-2-5-16(12-17)27-19(30)13-7-8-13/h1-6,9-13H,7-8H2,(H,27,30)(H2,25,26,28,29)

> <PUBCHEM_IUPAC_INCHIKEY>
RDTDWGQDFJPTPD-UHFFFAOYSA-N

> <PUBCHEM_XLOGP3_AA>
4.5

> <PUBCHEM_EXACT_MASS>
413.146

> <PUBCHEM_MOLECULAR_FORMULA>
C21H18F3N5O

> <PUBCHEM_MOLECULAR_WEIGHT>
413.404

> <PUBCHEM_OPENEYE_CAN_SMILES>
C1CC1C(=O)NC2=CC=CC(=C2)NC3=NC=CC(=N3)NC4=CC=CC(=C4)C(F)(F)F

> <PUBCHEM_OPENEYE_ISO_SMILES>
C1CC1C(=O)NC2=CC=CC(=C2)NC3=NC=CC(=N3)NC4=CC=CC(=C4)C(F)(F)F

> <PUBCHEM_CACTVS_TPSA>
78.9

> <PUBCHEM_MONOISOTOPIC_WEIGHT>
413.146

> <PUBCHEM_TOTAL_CHARGE>
0

> <PUBCHEM_HEAVY_ATOM_COUNT>
30

> <PUBCHEM_ATOM_DEF_STEREO_COUNT>
0

> <PUBCHEM_ATOM_UDEF_STEREO_COUNT>
0

> <PUBCHEM_BOND_DEF_STEREO_COUNT>
0

> <PUBCHEM_BOND_UDEF_STEREO_COUNT>
0

> <PUBCHEM_ISOTOPIC_ATOM_COUNT>
0

> <PUBCHEM_COMPONENT_COUNT>
1

> <PUBCHEM_CACTVS_TAUTO_COUNT>
27

> <PUBCHEM_COORDINATE_TYPE>
1
5
255

> <PUBCHEM_BONDANNOTATIONS>
14  15  8
14  16  8
15  17  8
16  18  8
17  19  8
18  19  8
21  24  8
21  25  8
22  28  8
23  24  8
23  26  8
25  27  8
26  27  8
28  30  8
8  20  8
8  22  8
9  20  8
9  30  8

$$$$
6419747
  -OEChem-11021605012D

 40 43  0     0  0  0  0  0  0999 V2000
    3.4030   -0.5986    0.0000 S   0  0  0  0  0  0  0  0  0  0  0  0
    8.5309   -1.5986    0.0000 O   0  0  0  0  0  0  0  0  0  0  0  0
    2.9030   -1.4646    0.0000 O   0  0  0  0  0  0  0  0  0  0  0  0
    3.9030    0.2675    0.0000 O   0  0  0  0  0  0  0  0  0  0  0  0
    9.8365    0.1891    0.0000 N   0  0  0  0  0  0  0  0  0  0  0  0
    6.9473   -2.4033    0.0000 N   0  0  0  0  0  0  0  0  0  0  0  0
    2.5369   -0.0986    0.0000 N   0  0  0  0  0  0  0  0  0  0  0  0
    6.0010   -1.0986    0.0000 C   0  0  0  0  0  0  0  0  0  0  0  0
    6.9473   -0.7938    0.0000 C   0  0  0  0  0  0  0  0  0  0  0  0
    8.2364    0.3629    0.0000 C   0  0  0  0  0  0  0  0  0  0  0  0
    8.6415    1.2707    0.0000 C   0  0  0  0  0  0  0  0  0  0  0  0
    9.6357    1.1627    0.0000 C   0  0  0  0  0  0  0  0  0  0  0  0
    6.0010   -2.0986    0.0000 C   0  0  0  0  0  0  0  0  0  0  0  0
    7.2579    0.1567    0.0000 C   0  0  0  0  0  0  0  0  0  0  0  0
    8.9734   -0.3042    0.0000 C   0  0  0  0  0  0  0  0  0  0  0  0
    5.1350   -0.5986    0.0000 C   0  0  0  0  0  0  0  0  0  0  0  0
    7.5309   -1.5986    0.0000 C   0  0  0  0  0  0  0  0  0  0  0  0
    4.2690   -1.0986    0.0000 C   0  0  0  0  0  0  0  0  0  0  0  0
    5.1350   -2.5986    0.0000 C   0  0  0  0  0  0  0  0  0  0  0  0
    8.2380    2.1856    0.0000 C   0  0  0  0  0  0  0  0  0  0  0  0
    4.2690   -2.0986    0.0000 C   0  0  0  0  0  0  0  0  0  0  0  0
   10.2263    1.9697    0.0000 C   0  0  0  0  0  0  0  0  0  0  0  0
   10.7479   -0.2223    0.0000 C   0  0  0  0  0  0  0  0  0  0  0  0
    8.8286    2.9926    0.0000 C   0  0  0  0  0  0  0  0  0  0  0  0
    9.8227    2.8846    0.0000 C   0  0  0  0  0  0  0  0  0  0  0  0
    6.8439    0.6182    0.0000 H   0  0  0  0  0  0  0  0  0  0  0  0
    8.9065   -0.9206    0.0000 H   0  0  0  0  0  0  0  0  0  0  0  0
    5.1350    0.0214    0.0000 H   0  0  0  0  0  0  0  0  0  0  0  0
    7.1399   -2.9926    0.0000 H   0  0  0  0  0  0  0  0  0  0  0  0
    5.1350   -3.2186    0.0000 H   0  0  0  0  0  0  0  0  0  0  0  0
    7.6216    2.2526    0.0000 H   0  0  0  0  0  0  0  0  0  0  0  0
    3.7320   -2.4086    0.0000 H   0  0  0  0  0  0  0  0  0  0  0  0
   10.8427    1.9028    0.0000 H   0  0  0  0  0  0  0  0  0  0  0  0
   10.4928   -0.7874    0.0000 H   0  0  0  0  0  0  0  0  0  0  0  0
   11.3130   -0.4775    0.0000 H   0  0  0  0  0  0  0  0  0  0  0  0
   11.0030    0.3427    0.0000 H   0  0  0  0  0  0  0  0  0  0  0  0
    8.5783    3.5599    0.0000 H   0  0  0  0  0  0  0  0  0  0  0  0
   10.1889    3.3850    0.0000 H   0  0  0  0  0  0  0  0  0  0  0  0
    2.0000   -0.4086    0.0000 H   0  0  0  0  0  0  0  0  0  0  0  0
    2.5369    0.5214    0.0000 H   0  0  0  0  0  0  0  0  0  0  0  0
  1  3  2  0  0  0  0
  1  4  2  0  0  0  0
  1  7  1  0  0  0  0
  1 18  1  0  0  0  0
  2 17  2  0  0  0  0
  5 12  1  0  0  0  0
  5 15  1  0  0  0  0
  5 23  1  0  0  0  0
  6 13  1  0  0  0  0
  6 17  1  0  0  0  0
  6 29  1  0  0  0  0
  7 39  1  0  0  0  0
  7 40  1  0  0  0  0
  8  9  1  0  0  0  0
  8 13  2  0  0  0  0
  8 16  1  0  0  0  0
  9 14  2  0  0  0  0
  9 17  1  0  0  0  0
 10 11  1  0  0  0  0
 10 14  1  0  0  0  0
 10 15  2  0  0  0  0
 11 12  1  0  0  0  0
 11 20  2  0  0  0  0
 12 22  2  0  0  0  0
 13 19  1  0  0  0  0
 14 26  1  0  0  0  0
 15 27  1  0  0  0  0
 16 18  2  0  0  0  0
 16 28  1  0  0  0  0
 18 21  1  0  0  0  0
 19 21  2  0  0  0  0
 19 30  1  0  0  0  0
 20 24  1  0  0  0  0
 20 31  1  0  0  0  0
 21 32  1  0  0  0  0
 22 25  1  0  0  0  0
 22 33  1  0  0  0  0
 23 34  1  0  0  0  0
 23 35  1  0  0  0  0
 23 36  1  0  0  0  0
 24 25  2  0  0  0  0
 24 37  1  0  0  0  0
 25 38  1  0  0  0  0
M  END
> <PUBCHEM_COMPOUND_CID>
6419747

> <PUBCHEM_COMPOUND_CANONICALIZED>
1

> <PUBCHEM_CACTVS_COMPLEXITY>
684

> <PUBCHEM_CACTVS_HBOND_ACCEPTOR>
4

> <PUBCHEM_CACTVS_HBOND_DONOR>
2

> <PUBCHEM_CACTVS_ROTATABLE_BOND>
2

> <PUBCHEM_CACTVS_SUBSKEYS>
AAADccB7MABAAAAAAAAAAAAAAAAAAWLAAAAwYAAAAAAAAFgB9AAAHgQQQAAADAjB3gQ+wfPMEAKoAzV3VHDCgDAxAiAI2Dk4ZNgIIPLAlZGEIAhglADIyYcciMCOgAQAgAACAAAACAEAAAQAAAAAAAAAAA==

> <PUBCHEM_IUPAC_OPENEYE_NAME>
(3Z)-3-[(1-methylindol-3-yl)methylene]-2-oxo-indoline-5-sulfonamide

> <PUBCHEM_IUPAC_CAS_NAME>
(3Z)-3-[(1-methyl-3-indolyl)methylidene]-2-oxo-1H-indole-5-sulfonamide

> <PUBCHEM_IUPAC_NAME>
(3Z)-3-[(1-methylindol-3-yl)methylidene]-2-oxo-1H-indole-5-sulfonamide

> <PUBCHEM_IUPAC_SYSTEMATIC_NAME>
(3Z)-3-[(1-methylindol-3-yl)methylidene]-2-oxidanylidene-1H-indole-5-sulfonamide

> <PUBCHEM_IUPAC_TRADITIONAL_NAME>
(3Z)-2-keto-3-[(1-methylindol-3-yl)methylene]indoline-5-sulfonamide

> <PUBCHEM_IUPAC_INCHI>
InChI=1S/C18H15N3O3S/c1-21-10-11(13-4-2-3-5-17(13)21)8-15-14-9-12(25(19,23)24)6-7-16(14)20-18(15)22/h2-10H,1H3,(H,20,22)(H2,19,23,24)/b15-8-

> <PUBCHEM_IUPAC_INCHIKEY>
MLKHXLFEYOOYEY-NVNXTCNLSA-N

> <PUBCHEM_XLOGP3_AA>
1.5

> <PUBCHEM_EXACT_MASS>
353.083

> <PUBCHEM_MOLECULAR_FORMULA>
C18H15N3O3S

> <PUBCHEM_MOLECULAR_WEIGHT>
353.396

> <PUBCHEM_OPENEYE_CAN_SMILES>
CN1C=C(C2=CC=CC=C21)C=C3C4=C(C=CC(=C4)S(=O)(=O)N)NC3=O

> <PUBCHEM_OPENEYE_ISO_SMILES>
CN1C=C(C2=CC=CC=C21)/C=C\3/C4=C(C=CC(=C4)S(=O)(=O)N)NC3=O

> <PUBCHEM_CACTVS_TPSA>
103

> <PUBCHEM_MONOISOTOPIC_WEIGHT>
353.083

> <PUBCHEM_TOTAL_CHARGE>
0

> <PUBCHEM_HEAVY_ATOM_COUNT>
25

> <PUBCHEM_ATOM_DEF_STEREO_COUNT>
0

> <PUBCHEM_ATOM_UDEF_STEREO_COUNT>
0

> <PUBCHEM_BOND_DEF_STEREO_COUNT>
1

> <PUBCHEM_BOND_UDEF_STEREO_COUNT>
0

> <PUBCHEM_ISOTOPIC_ATOM_COUNT>
0

> <PUBCHEM_COMPONENT_COUNT>
1

> <PUBCHEM_CACTVS_TAUTO_COUNT>
3

> <PUBCHEM_COORDINATE_TYPE>
1
5
255

> <PUBCHEM_BONDANNOTATIONS>
10  11  8
10  15  8
11  12  8
11  20  8
12  22  8
13  19  8
16  18  8
18  21  8
19  21  8
20  24  8
22  25  8
24  25  8
5  12  8
5  15  8
8  13  8
8  16  8

$$$$
2422
  -OEChem-11021605012D

 49 51  0     0  0  0  0  0  0999 V2000
    2.5369    2.5002    0.0000 O   0  0  0  0  0  0  0  0  0  0  0  0
    9.5453    2.3050    0.0000 N   0  0  0  0  0  0  0  0  0  0  0  0
    9.5453    0.6955    0.0000 N   0  0  0  0  0  0  0  0  0  0  0  0
    7.7331    2.5002    0.0000 N   0  0  0  0  0  0  0  0  0  0  0  0
    7.7331   -0.4998    0.0000 N   0  0  0  0  0  0  0  0  0  0  0  0
    6.8671    1.0002    0.0000 N   0  0  0  0  0  0  0  0  0  0  0  0
    6.0010    2.5002    0.0000 N   0  0  0  0  0  0  0  0  0  0  0  0
    9.8560    3.2555    0.0000 C   0  0  0  0  0  0  0  0  0  0  0  0
    8.5991    2.0002    0.0000 C   0  0  0  0  0  0  0  0  0  0  0  0
    8.5991    1.0002    0.0000 C   0  0  0  0  0  0  0  0  0  0  0  0
   10.8345    3.4617    0.0000 C   0  0  0  0  0  0  0  0  0  0  0  0
    9.1882    3.9998    0.0000 C   0  0  0  0  0  0  0  0  0  0  0  0
   10.1289    1.5002    0.0000 C   0  0  0  0  0  0  0  0  0  0  0  0
    7.7331    0.5002    0.0000 C   0  0  0  0  0  0  0  0  0  0  0  0
    6.8671    2.0002    0.0000 C   0  0  0  0  0  0  0  0  0  0  0  0
    5.1350    2.0002    0.0000 C   0  0  0  0  0  0  0  0  0  0  0  0
    6.8671   -0.9998    0.0000 C   0  0  0  0  0  0  0  0  0  0  0  0
    4.2690    2.5002    0.0000 C   0  0  0  0  0  0  0  0  0  0  0  0
    6.8671   -1.9998    0.0000 C   0  0  0  0  0  0  0  0  0  0  0  0
    3.4030    2.0002    0.0000 C   0  0  0  0  0  0  0  0  0  0  0  0
    6.0010   -2.4998    0.0000 C   0  0  0  0  0  0  0  0  0  0  0  0
    7.7331   -2.4998    0.0000 C   0  0  0  0  0  0  0  0  0  0  0  0
    6.0010   -3.4998    0.0000 C   0  0  0  0  0  0  0  0  0  0  0  0
    7.7331   -3.4998    0.0000 C   0  0  0  0  0  0  0  0  0  0  0  0
    6.8671   -3.9998    0.0000 C   0  0  0  0  0  0  0  0  0  0  0  0
   10.2701    2.7940    0.0000 H   0  0  0  0  0  0  0  0  0  0  0  0
   10.7489    1.5002    0.0000 H   0  0  0  0  0  0  0  0  0  0  0  0
    9.6496    4.4138    0.0000 H   0  0  0  0  0  0  0  0  0  0  0  0
    8.7741    4.4612    0.0000 H   0  0  0  0  0  0  0  0  0  0  0  0
    8.7267    3.5857    0.0000 H   0  0  0  0  0  0  0  0  0  0  0  0
   10.9624    2.8550    0.0000 H   0  0  0  0  0  0  0  0  0  0  0  0
   11.4412    3.5896    0.0000 H   0  0  0  0  0  0  0  0  0  0  0  0
   10.7066    4.0684    0.0000 H   0  0  0  0  0  0  0  0  0  0  0  0
    8.2700   -0.8098    0.0000 H   0  0  0  0  0  0  0  0  0  0  0  0
    4.7365    1.5253    0.0000 H   0  0  0  0  0  0  0  0  0  0  0  0
    5.5335    1.5253    0.0000 H   0  0  0  0  0  0  0  0  0  0  0  0
    6.6550   -0.4172    0.0000 H   0  0  0  0  0  0  0  0  0  0  0  0
    6.2565   -1.1074    0.0000 H   0  0  0  0  0  0  0  0  0  0  0  0
    6.0010    3.1202    0.0000 H   0  0  0  0  0  0  0  0  0  0  0  0
    4.6675    2.9752    0.0000 H   0  0  0  0  0  0  0  0  0  0  0  0
    3.8705    2.9752    0.0000 H   0  0  0  0  0  0  0  0  0  0  0  0
    3.0044    1.5253    0.0000 H   0  0  0  0  0  0  0  0  0  0  0  0
    3.8015    1.5253    0.0000 H   0  0  0  0  0  0  0  0  0  0  0  0
    5.4641   -2.1898    0.0000 H   0  0  0  0  0  0  0  0  0  0  0  0
    8.2700   -2.1898    0.0000 H   0  0  0  0  0  0  0  0  0  0  0  0
    5.4641   -3.8098    0.0000 H   0  0  0  0  0  0  0  0  0  0  0  0
    8.2700   -3.8098    0.0000 H   0  0  0  0  0  0  0  0  0  0  0  0
    6.8671   -4.6198    0.0000 H   0  0  0  0  0  0  0  0  0  0  0  0
    2.0000    2.1902    0.0000 H   0  0  0  0  0  0  0  0  0  0  0  0
  1 20  1  0  0  0  0
  1 49  1  0  0  0  0
  2  8  1  0  0  0  0
  2  9  1  0  0  0  0
  2 13  1  0  0  0  0
  3 10  1  0  0  0  0
  3 13  2  0  0  0  0
  4  9  1  0  0  0  0
  4 15  2  0  0  0  0
  5 14  1  0  0  0  0
  5 17  1  0  0  0  0
  5 34  1  0  0  0  0
  6 14  2  0  0  0  0
  6 15  1  0  0  0  0
  7 15  1  0  0  0  0
  7 16  1  0  0  0  0
  7 39  1  0  0  0  0
  8 11  1  0  0  0  0
  8 12  1  0  0  0  0
  8 26  1  0  0  0  0
  9 10  2  0  0  0  0
 10 14  1  0  0  0  0
 11 31  1  0  0  0  0
 11 32  1  0  0  0  0
 11 33  1  0  0  0  0
 12 28  1  0  0  0  0
 12 29  1  0  0  0  0
 12 30  1  0  0  0  0
 13 27  1  0  0  0  0
 16 18  1  0  0  0  0
 16 35  1  0  0  0  0
 16 36  1  0  0  0  0
 17 19  1  0  0  0  0
 17 37  1  0  0  0  0
 17 38  1  0  0  0  0
 18 20  1  0  0  0  0
 18 40  1  0  0  0  0
 18 41  1  0  0  0  0
 19 21  2  0  0  0  0
 19 22  1  0  0  0  0
 20 42  1  0  0  0  0
 20 43  1  0  0  0  0
 21 23  1  0  0  0  0
 21 44  1  0  0  0  0
 22 24  2  0  0  0  0
 22 45  1  0  0  0  0
 23 25  2  0  0  0  0
 23 46  1  0  0  0  0
 24 25  1  0  0  0  0
 24 47  1  0  0  0  0
 25 48  1  0  0  0  0
M  END
> <PUBCHEM_COMPOUND_CID>
2422

> <PUBCHEM_COMPOUND_CANONICALIZED>
1

> <PUBCHEM_CACTVS_COMPLEXITY>
390

> <PUBCHEM_CACTVS_HBOND_ACCEPTOR>
6

> <PUBCHEM_CACTVS_HBOND_DONOR>
3

> <PUBCHEM_CACTVS_ROTATABLE_BOND>
8

> <PUBCHEM_CACTVS_SUBSKEYS>
AAADceB7oAAAAAAAAAAAAAAAAAAAAWAAAAA8QAAAAAAAAFgB/AAAHgAQCAAADCjhnwY38L/MEgCgAyZjZACCgC0xEKAJ2KAoVJiIeCLA2VGUZAhqkALIiCcQgAAOAAAAAAAAAAAAAAAAAAAAAAAAAAAAAA==

> <PUBCHEM_IUPAC_OPENEYE_NAME>
3-[[6-(benzylamino)-9-isopropyl-purin-2-yl]amino]propan-1-ol

> <PUBCHEM_IUPAC_CAS_NAME>
3-[[6-[(phenylmethyl)amino]-9-propan-2-yl-2-purinyl]amino]-1-propanol

> <PUBCHEM_IUPAC_NAME>
3-[[6-(benzylamino)-9-propan-2-ylpurin-2-yl]amino]propan-1-ol

> <PUBCHEM_IUPAC_SYSTEMATIC_NAME>
3-[[6-[(phenylmethyl)amino]-9-propan-2-yl-purin-2-yl]amino]propan-1-ol

> <PUBCHEM_IUPAC_TRADITIONAL_NAME>
3-[[6-(benzylamino)-9-isopropyl-purin-2-yl]amino]propan-1-ol

> <PUBCHEM_IUPAC_INCHI>
InChI=1S/C18H24N6O/c1-13(2)24-12-21-15-16(20-11-14-7-4-3-5-8-14)22-18(23-17(15)24)19-9-6-10-25/h3-5,7-8,12-13,25H,6,9-11H2,1-2H3,(H2,19,20,22,23)

> <PUBCHEM_IUPAC_INCHIKEY>
OPQGFIAVPSXOBO-UHFFFAOYSA-N

> <PUBCHEM_XLOGP3_AA>
3.1

> <PUBCHEM_EXACT_MASS>
340.201

> <PUBCHEM_MOLECULAR_FORMULA>
C18H24N6O

> <PUBCHEM_MOLECULAR_WEIGHT>
340.431

> <PUBCHEM_OPENEYE_CAN_SMILES>
CC(C)N1C=NC2=C1N=C(N=C2NCC3=CC=CC=C3)NCCCO

> <PUBCHEM_OPENEYE_ISO_SMILES>
CC(C)N1C=NC2=C1N=C(N=C2NCC3=CC=CC=C3)NCCCO

> <PUBCHEM_CACTVS_TPSA>
87.9

> <PUBCHEM_MONOISOTOPIC_WEIGHT>
340.201

> <PUBCHEM_TOTAL_CHARGE>
0

> <PUBCHEM_HEAVY_ATOM_COUNT>
25

> <PUBCHEM_ATOM_DEF_STEREO_COUNT>
0

> <PUBCHEM_ATOM_UDEF_STEREO_COUNT>
0

> <PUBCHEM_BOND_DEF_STEREO_COUNT>
0

> <PUBCHEM_BOND_UDEF_STEREO_COUNT>
0

> <PUBCHEM_ISOTOPIC_ATOM_COUNT>
0

> <PUBCHEM_COMPONENT_COUNT>
1

> <PUBCHEM_CACTVS_TAUTO_COUNT>
6

> <PUBCHEM_COORDINATE_TYPE>
1
5
255

> <PUBCHEM_BONDANNOTATIONS>
10  14  8
19  21  8
19  22  8
2  13  8
2  9  8
21  23  8
22  24  8
23  25  8
24  25  8
3  10  8
3  13  8
4  15  8
4  9  8
6  14  8
6  15  8
9  10  8

$$$$
6419834
  -OEChem-11021605012D

 41 43  0     0  0  0  0  0  0999 V2000
    9.0183    1.7666    0.0000 O   0  0  0  0  0  0  0  0  0  0  0  0
    6.2619   -1.5338    0.0000 O   0  0  0  0  0  0  0  0  0  0  0  0
    7.7331    2.9278    0.0000 O   0  0  0  0  0  0  0  0  0  0  0  0
    6.7094   -0.2427    0.0000 N   0  0  0  0  0  0  0  0  0  0  0  0
    4.6783   -2.3385    0.0000 N   0  0  0  0  0  0  0  0  0  0  0  0
    5.9674    0.4277    0.0000 C   0  0  0  0  0  0  0  0  0  0  0  0
    6.3758    1.3405    0.0000 C   0  0  0  0  0  0  0  0  0  0  0  0
    7.3701    1.2343    0.0000 C   0  0  0  0  0  0  0  0  0  0  0  0
    7.5763    0.2558    0.0000 C   0  0  0  0  0  0  0  0  0  0  0  0
    4.6783   -0.7291    0.0000 C   0  0  0  0  0  0  0  0  0  0  0  0
    4.9889    0.2215    0.0000 C   0  0  0  0  0  0  0  0  0  0  0  0
    3.7320   -1.0338    0.0000 C   0  0  0  0  0  0  0  0  0  0  0  0
    3.7320   -2.0338    0.0000 C   0  0  0  0  0  0  0  0  0  0  0  0
    5.2619   -1.5338    0.0000 C   0  0  0  0  0  0  0  0  0  0  0  0
    5.8772    2.2074    0.0000 C   0  0  0  0  0  0  0  0  0  0  0  0
    8.4892   -0.1526    0.0000 C   0  0  0  0  0  0  0  0  0  0  0  0
    2.8660   -0.5338    0.0000 C   0  0  0  0  0  0  0  0  0  0  0  0
    8.0405    1.9763    0.0000 C   0  0  0  0  0  0  0  0  0  0  0  0
    2.8660   -2.5338    0.0000 C   0  0  0  0  0  0  0  0  0  0  0  0
    2.0000   -1.0338    0.0000 C   0  0  0  0  0  0  0  0  0  0  0  0
    2.0000   -2.0338    0.0000 C   0  0  0  0  0  0  0  0  0  0  0  0
    9.6887    2.5086    0.0000 C   0  0  0  0  0  0  0  0  0  0  0  0
   10.6665    2.2990    0.0000 C   0  0  0  0  0  0  0  0  0  0  0  0
    6.6436   -0.8592    0.0000 H   0  0  0  0  0  0  0  0  0  0  0  0
    4.5749    0.6829    0.0000 H   0  0  0  0  0  0  0  0  0  0  0  0
    6.4147    2.5165    0.0000 H   0  0  0  0  0  0  0  0  0  0  0  0
    5.5682    2.7449    0.0000 H   0  0  0  0  0  0  0  0  0  0  0  0
    5.3398    1.8983    0.0000 H   0  0  0  0  0  0  0  0  0  0  0  0
    4.8709   -2.9278    0.0000 H   0  0  0  0  0  0  0  0  0  0  0  0
    8.2360   -0.7185    0.0000 H   0  0  0  0  0  0  0  0  0  0  0  0
    9.0551   -0.4057    0.0000 H   0  0  0  0  0  0  0  0  0  0  0  0
    8.7423    0.4134    0.0000 H   0  0  0  0  0  0  0  0  0  0  0  0
    2.8660    0.0862    0.0000 H   0  0  0  0  0  0  0  0  0  0  0  0
    2.8660   -3.1538    0.0000 H   0  0  0  0  0  0  0  0  0  0  0  0
    1.4631   -0.7238    0.0000 H   0  0  0  0  0  0  0  0  0  0  0  0
    1.4631   -2.3438    0.0000 H   0  0  0  0  0  0  0  0  0  0  0  0
    9.9220    3.0831    0.0000 H   0  0  0  0  0  0  0  0  0  0  0  0
    9.1635    2.8381    0.0000 H   0  0  0  0  0  0  0  0  0  0  0  0
   10.5365    1.6928    0.0000 H   0  0  0  0  0  0  0  0  0  0  0  0
   11.2727    2.1691    0.0000 H   0  0  0  0  0  0  0  0  0  0  0  0
   10.7965    2.9053    0.0000 H   0  0  0  0  0  0  0  0  0  0  0  0
  1 18  1  0  0  0  0
  1 22  1  0  0  0  0
  2 14  2  0  0  0  0
  3 18  2  0  0  0  0
  4  6  1  0  0  0  0
  4  9  1  0  0  0  0
  4 24  1  0  0  0  0
  5 13  1  0  0  0  0
  5 14  1  0  0  0  0
  5 29  1  0  0  0  0
  6  7  2  0  0  0  0
  6 11  1  0  0  0  0
  7  8  1  0  0  0  0
  7 15  1  0  0  0  0
  8  9  2  0  0  0  0
  8 18  1  0  0  0  0
  9 16  1  0  0  0  0
 10 11  2  0  0  0  0
 10 12  1  0  0  0  0
 10 14  1  0  0  0  0
 11 25  1  0  0  0  0
 12 13  1  0  0  0  0
 12 17  2  0  0  0  0
 13 19  2  0  0  0  0
 15 26  1  0  0  0  0
 15 27  1  0  0  0  0
 15 28  1  0  0  0  0
 16 30  1  0  0  0  0
 16 31  1  0  0  0  0
 16 32  1  0  0  0  0
 17 20  1  0  0  0  0
 17 33  1  0  0  0  0
 19 21  1  0  0  0  0
 19 34  1  0  0  0  0
 20 21  2  0  0  0  0
 20 35  1  0  0  0  0
 21 36  1  0  0  0  0
 22 23  1  0  0  0  0
 22 37  1  0  0  0  0
 22 38  1  0  0  0  0
 23 39  1  0  0  0  0
 23 40  1  0  0  0  0
 23 41  1  0  0  0  0
M  END
> <PUBCHEM_COMPOUND_CID>
6419834

> <PUBCHEM_COMPOUND_CANONICALIZED>
1

> <PUBCHEM_CACTVS_COMPLEXITY>
516

> <PUBCHEM_CACTVS_HBOND_ACCEPTOR>
3

> <PUBCHEM_CACTVS_HBOND_DONOR>
2

> <PUBCHEM_CACTVS_ROTATABLE_BOND>
4

> <PUBCHEM_CACTVS_SUBSKEYS>
AAADceB7MAAAAAAAAAAAAAAAAAAAAWLAAAAwAAAAAAAAAFgBwAAAHgAQAAAADAihngIyyJLJlACoAyXyXACCgCAlAiAImSEwbNgIJnrAtZmGMYhm1AHI6ce8iICOgAAAAAACAAAAAAAAAAQAAAAAAAAAAA==

> <PUBCHEM_IUPAC_OPENEYE_NAME>
ethyl 2,4-dimethyl-5-[(Z)-(2-oxoindolin-3-ylidene)methyl]-1H-pyrrole-3-carboxylate

> <PUBCHEM_IUPAC_CAS_NAME>
2,4-dimethyl-5-[(Z)-(2-oxo-1H-indol-3-ylidene)methyl]-1H-pyrrole-3-carboxylic acid ethyl ester

> <PUBCHEM_IUPAC_NAME>
ethyl 2,4-dimethyl-5-[(Z)-(2-oxo-1H-indol-3-ylidene)methyl]-1H-pyrrole-3-carboxylate

> <PUBCHEM_IUPAC_SYSTEMATIC_NAME>
ethyl 2,4-dimethyl-5-[(Z)-(2-oxidanylidene-1H-indol-3-ylidene)methyl]-1H-pyrrole-3-carboxylate

> <PUBCHEM_IUPAC_TRADITIONAL_NAME>
5-[(Z)-(2-ketoindolin-3-ylidene)methyl]-2,4-dimethyl-1H-pyrrole-3-carboxylic acid ethyl ester

> <PUBCHEM_IUPAC_INCHI>
InChI=1S/C18H18N2O3/c1-4-23-18(22)16-10(2)15(19-11(16)3)9-13-12-7-5-6-8-14(12)20-17(13)21/h5-9,19H,4H2,1-3H3,(H,20,21)/b13-9-

> <PUBCHEM_IUPAC_INCHIKEY>
PMUJUSJUVIXDQC-LCYFTJDESA-N

> <PUBCHEM_XLOGP3_AA>
2.7

> <PUBCHEM_EXACT_MASS>
310.132

> <PUBCHEM_MOLECULAR_FORMULA>
C18H18N2O3

> <PUBCHEM_MOLECULAR_WEIGHT>
310.353

> <PUBCHEM_OPENEYE_CAN_SMILES>
CCOC(=O)C1=C(NC(=C1C)C=C2C3=CC=CC=C3NC2=O)C

> <PUBCHEM_OPENEYE_ISO_SMILES>
CCOC(=O)C1=C(NC(=C1C)/C=C\2/C3=CC=CC=C3NC2=O)C

> <PUBCHEM_CACTVS_TPSA>
71.2

> <PUBCHEM_MONOISOTOPIC_WEIGHT>
310.132

> <PUBCHEM_TOTAL_CHARGE>
0

> <PUBCHEM_HEAVY_ATOM_COUNT>
23

> <PUBCHEM_ATOM_DEF_STEREO_COUNT>
0

> <PUBCHEM_ATOM_UDEF_STEREO_COUNT>
0

> <PUBCHEM_BOND_DEF_STEREO_COUNT>
1

> <PUBCHEM_BOND_UDEF_STEREO_COUNT>
0

> <PUBCHEM_ISOTOPIC_ATOM_COUNT>
0

> <PUBCHEM_COMPONENT_COUNT>
1

> <PUBCHEM_CACTVS_TAUTO_COUNT>
21

> <PUBCHEM_COORDINATE_TYPE>
1
5
255

> <PUBCHEM_BONDANNOTATIONS>
12  13  8
12  17  8
13  19  8
17  20  8
19  21  8
20  21  8
4  6  8
4  9  8
6  7  8
7  8  8
8  9  8

$$$$
10907042
  -OEChem-11021605012D

 63 67  0     0  0  0  0  0  0999 V2000
    5.4400   -0.7423    0.0000 O   0  0  0  0  0  0  0  0  0  0  0  0
    2.8660    3.7820    0.0000 O   0  0  0  0  0  0  0  0  0  0  0  0
    2.8660    5.7820    0.0000 O   0  0  0  0  0  0  0  0  0  0  0  0
    7.1257   -4.7621    0.0000 O   0  0  0  0  0  0  0  0  0  0  0  0
    6.3465    2.7474    0.0000 N   0  0  0  0  0  0  0  0  0  0  0  0
    6.3233    0.7475    0.0000 N   0  0  0  0  0  0  0  0  0  0  0  0
    7.2641    4.2612    0.0000 N   0  0  0  0  0  0  0  0  0  0  0  0
    7.1720   -0.7624    0.0000 N   0  0  0  0  0  0  0  0  0  0  0  0
    6.3580    5.8167    0.0000 N   0  0  0  0  0  0  0  0  0  0  0  0
    5.4747    2.2574    0.0000 C   0  0  0  0  0  0  0  0  0  0  0  0
    7.2067    2.2374    0.0000 C   0  0  0  0  0  0  0  0  0  0  0  0
    7.1951    1.2375    0.0000 C   0  0  0  0  0  0  0  0  0  0  0  0
    5.4632    1.2575    0.0000 C   0  0  0  0  0  0  0  0  0  0  0  0
    6.3580    3.7473    0.0000 C   0  0  0  0  0  0  0  0  0  0  0  0
    6.3118   -0.2524    0.0000 C   0  0  0  0  0  0  0  0  0  0  0  0
    5.4641    4.2820    0.0000 C   0  0  0  0  0  0  0  0  0  0  0  0
    5.4641    5.2820    0.0000 C   0  0  0  0  0  0  0  0  0  0  0  0
    4.5981    3.7820    0.0000 C   0  0  0  0  0  0  0  0  0  0  0  0
    4.5981    5.7820    0.0000 C   0  0  0  0  0  0  0  0  0  0  0  0
    3.7320    4.2820    0.0000 C   0  0  0  0  0  0  0  0  0  0  0  0
    7.2641    5.3028    0.0000 C   0  0  0  0  0  0  0  0  0  0  0  0
    3.7320    5.2820    0.0000 C   0  0  0  0  0  0  0  0  0  0  0  0
    7.1604   -1.7623    0.0000 C   0  0  0  0  0  0  0  0  0  0  0  0
    6.2887   -2.2523    0.0000 C   0  0  0  0  0  0  0  0  0  0  0  0
    8.0206   -2.2723    0.0000 C   0  0  0  0  0  0  0  0  0  0  0  0
    6.2771   -3.2522    0.0000 C   0  0  0  0  0  0  0  0  0  0  0  0
    8.0090   -3.2722    0.0000 C   0  0  0  0  0  0  0  0  0  0  0  0
    7.1373   -3.7622    0.0000 C   0  0  0  0  0  0  0  0  0  0  0  0
    2.0000    4.2820    0.0000 C   0  0  0  0  0  0  0  0  0  0  0  0
    2.8660    6.7820    0.0000 C   0  0  0  0  0  0  0  0  0  0  0  0
    7.9859   -5.2721    0.0000 C   0  0  0  0  0  0  0  0  0  0  0  0
    7.9744   -6.2720    0.0000 C   0  0  0  0  0  0  0  0  0  0  0  0
    8.8577   -4.7821    0.0000 C   0  0  0  0  0  0  0  0  0  0  0  0
    8.8345   -6.7820    0.0000 C   0  0  0  0  0  0  0  0  0  0  0  0
    9.7178   -5.2921    0.0000 C   0  0  0  0  0  0  0  0  0  0  0  0
    9.7063   -6.2920    0.0000 C   0  0  0  0  0  0  0  0  0  0  0  0
    7.8160    2.1227    0.0000 H   0  0  0  0  0  0  0  0  0  0  0  0
    7.4254    2.8175    0.0000 H   0  0  0  0  0  0  0  0  0  0  0  0
    5.2694    2.8425    0.0000 H   0  0  0  0  0  0  0  0  0  0  0  0
    4.8630    2.1569    0.0000 H   0  0  0  0  0  0  0  0  0  0  0  0
    7.4004    0.6525    0.0000 H   0  0  0  0  0  0  0  0  0  0  0  0
    7.8069    1.3381    0.0000 H   0  0  0  0  0  0  0  0  0  0  0  0
    4.8539    1.3722    0.0000 H   0  0  0  0  0  0  0  0  0  0  0  0
    5.2444    0.6774    0.0000 H   0  0  0  0  0  0  0  0  0  0  0  0
    4.5981    3.1620    0.0000 H   0  0  0  0  0  0  0  0  0  0  0  0
    7.7125   -0.4586    0.0000 H   0  0  0  0  0  0  0  0  0  0  0  0
    4.5981    6.4020    0.0000 H   0  0  0  0  0  0  0  0  0  0  0  0
    7.7998    5.6149    0.0000 H   0  0  0  0  0  0  0  0  0  0  0  0
    5.7554   -1.9361    0.0000 H   0  0  0  0  0  0  0  0  0  0  0  0
    8.5611   -1.9685    0.0000 H   0  0  0  0  0  0  0  0  0  0  0  0
    5.7366   -3.5560    0.0000 H   0  0  0  0  0  0  0  0  0  0  0  0
    8.5424   -3.5884    0.0000 H   0  0  0  0  0  0  0  0  0  0  0  0
    2.3100    4.8189    0.0000 H   0  0  0  0  0  0  0  0  0  0  0  0
    1.4631    4.5920    0.0000 H   0  0  0  0  0  0  0  0  0  0  0  0
    1.6900    3.7451    0.0000 H   0  0  0  0  0  0  0  0  0  0  0  0
    3.4860    6.7820    0.0000 H   0  0  0  0  0  0  0  0  0  0  0  0
    2.8660    7.4020    0.0000 H   0  0  0  0  0  0  0  0  0  0  0  0
    2.2460    6.7820    0.0000 H   0  0  0  0  0  0  0  0  0  0  0  0
    7.4339   -6.5758    0.0000 H   0  0  0  0  0  0  0  0  0  0  0  0
    8.8648   -4.1622    0.0000 H   0  0  0  0  0  0  0  0  0  0  0  0
    8.8274   -7.4020    0.0000 H   0  0  0  0  0  0  0  0  0  0  0  0
   10.2583   -4.9883    0.0000 H   0  0  0  0  0  0  0  0  0  0  0  0
   10.2396   -6.6082    0.0000 H   0  0  0  0  0  0  0  0  0  0  0  0
  1 15  2  0  0  0  0
  2 20  1  0  0  0  0
  2 29  1  0  0  0  0
  3 22  1  0  0  0  0
  3 30  1  0  0  0  0
  4 28  1  0  0  0  0
  4 31  1  0  0  0  0
  5 10  1  0  0  0  0
  5 11  1  0  0  0  0
  5 14  1  0  0  0  0
  6 12  1  0  0  0  0
  6 13  1  0  0  0  0
  6 15  1  0  0  0  0
  7 14  2  0  0  0  0
  7 21  1  0  0  0  0
  8 15  1  0  0  0  0
  8 23  1  0  0  0  0
  8 46  1  0  0  0  0
  9 17  1  0  0  0  0
  9 21  2  0  0  0  0
 10 13  1  0  0  0  0
 10 39  1  0  0  0  0
 10 40  1  0  0  0  0
 11 12  1  0  0  0  0
 11 37  1  0  0  0  0
 11 38  1  0  0  0  0
 12 41  1  0  0  0  0
 12 42  1  0  0  0  0
 13 43  1  0  0  0  0
 13 44  1  0  0  0  0
 14 16  1  0  0  0  0
 16 17  1  0  0  0  0
 16 18  2  0  0  0  0
 17 19  2  0  0  0  0
 18 20  1  0  0  0  0
 18 45  1  0  0  0  0
 19 22  1  0  0  0  0
 19 47  1  0  0  0  0
 20 22  2  0  0  0  0
 21 48  1  0  0  0  0
 23 24  2  0  0  0  0
 23 25  1  0  0  0  0
 24 26  1  0  0  0  0
 24 49  1  0  0  0  0
 25 27  2  0  0  0  0
 25 50  1  0  0  0  0
 26 28  2  0  0  0  0
 26 51  1  0  0  0  0
 27 28  1  0  0  0  0
 27 52  1  0  0  0  0
 29 53  1  0  0  0  0
 29 54  1  0  0  0  0
 29 55  1  0  0  0  0
 30 56  1  0  0  0  0
 30 57  1  0  0  0  0
 30 58  1  0  0  0  0
 31 32  2  0  0  0  0
 31 33  1  0  0  0  0
 32 34  1  0  0  0  0
 32 59  1  0  0  0  0
 33 35  2  0  0  0  0
 33 60  1  0  0  0  0
 34 36  2  0  0  0  0
 34 61  1  0  0  0  0
 35 36  1  0  0  0  0
 35 62  1  0  0  0  0
 36 63  1  0  0  0  0
M  END
> <PUBCHEM_COMPOUND_CID>
10907042

> <PUBCHEM_COMPOUND_CANONICALIZED>
1

> <PUBCHEM_CACTVS_COMPLEXITY>
692

> <PUBCHEM_CACTVS_HBOND_ACCEPTOR>
7

> <PUBCHEM_CACTVS_HBOND_DONOR>
1

> <PUBCHEM_CACTVS_ROTATABLE_BOND>
6

> <PUBCHEM_CACTVS_SUBSKEYS>
AAADceB7uAAAAAAAAAAAAAAAAAAAAAAAAAA8eMECAAAAAACx9AAAHgAQAAAADAzBngY39vfIFACoAyZjdACCiCkxIqAJ2CA+7JiNbqLE+duWPCru1hvK6Cew0BMOIEABAgACQABAgAIEAASAAAAAAAAAAA==

> <PUBCHEM_IUPAC_OPENEYE_NAME>
4-(6,7-dimethoxyquinazolin-4-yl)-N-(4-phenoxyphenyl)piperazine-1-carboxamide

> <PUBCHEM_IUPAC_CAS_NAME>
4-(6,7-dimethoxy-4-quinazolinyl)-N-(4-phenoxyphenyl)-1-piperazinecarboxamide

> <PUBCHEM_IUPAC_NAME>
4-(6,7-dimethoxyquinazolin-4-yl)-N-(4-phenoxyphenyl)piperazine-1-carboxamide

> <PUBCHEM_IUPAC_SYSTEMATIC_NAME>
4-(6,7-dimethoxyquinazolin-4-yl)-N-(4-phenoxyphenyl)piperazine-1-carboxamide

> <PUBCHEM_IUPAC_TRADITIONAL_NAME>
4-(6,7-dimethoxyquinazolin-4-yl)-N-(4-phenoxyphenyl)piperazine-1-carboxamide

> <PUBCHEM_IUPAC_INCHI>
InChI=1S/C27H27N5O4/c1-34-24-16-22-23(17-25(24)35-2)28-18-29-26(22)31-12-14-32(15-13-31)27(33)30-19-8-10-21(11-9-19)36-20-6-4-3-5-7-20/h3-11,16-18H,12-15H2,1-2H3,(H,30,33)

> <PUBCHEM_IUPAC_INCHIKEY>
INTPTKHSGKBHHW-UHFFFAOYSA-N

> <PUBCHEM_XLOGP3_AA>
4.1

> <PUBCHEM_EXACT_MASS>
485.206

> <PUBCHEM_MOLECULAR_FORMULA>
C27H27N5O4

> <PUBCHEM_MOLECULAR_WEIGHT>
485.544

> <PUBCHEM_OPENEYE_CAN_SMILES>
COC1=C(C=C2C(=C1)C(=NC=N2)N3CCN(CC3)C(=O)NC4=CC=C(C=C4)OC5=CC=CC=C5)OC

> <PUBCHEM_OPENEYE_ISO_SMILES>
COC1=C(C=C2C(=C1)C(=NC=N2)N3CCN(CC3)C(=O)NC4=CC=C(C=C4)OC5=CC=CC=C5)OC

> <PUBCHEM_CACTVS_TPSA>
89

> <PUBCHEM_MONOISOTOPIC_WEIGHT>
485.206

> <PUBCHEM_TOTAL_CHARGE>
0

> <PUBCHEM_HEAVY_ATOM_COUNT>
36

> <PUBCHEM_ATOM_DEF_STEREO_COUNT>
0

> <PUBCHEM_ATOM_UDEF_STEREO_COUNT>
0

> <PUBCHEM_BOND_DEF_STEREO_COUNT>
0

> <PUBCHEM_BOND_UDEF_STEREO_COUNT>
0

> <PUBCHEM_ISOTOPIC_ATOM_COUNT>
0

> <PUBCHEM_COMPONENT_COUNT>
1

> <PUBCHEM_CACTVS_TAUTO_COUNT>
2

> <PUBCHEM_COORDINATE_TYPE>
1
5
255

> <PUBCHEM_BONDANNOTATIONS>
14  16  8
16  17  8
16  18  8
17  19  8
18  20  8
19  22  8
20  22  8
23  24  8
23  25  8
24  26  8
25  27  8
26  28  8
27  28  8
31  32  8
31  33  8
32  34  8
33  35  8
34  36  8
35  36  8
7  14  8
7  21  8
9  17  8
9  21  8

$$$$
5494425
  -OEChem-11021605012D

 39 42  0     0  0  0  0  0  0999 V2000
    8.0941    1.3330    0.0000 F   0  0  0  0  0  0  0  0  0  0  0  0
    5.4518    2.8403    0.0000 O   0  0  0  0  0  0  0  0  0  0  0  0
    4.3548   -1.6630    0.0000 N   0  0  0  0  0  0  0  0  0  0  0  0
    2.9609   -0.8583    0.0000 N   0  0  0  0  0  0  0  0  0  0  0  0
    3.6820    2.8781    0.0000 N   0  0  0  0  0  0  0  0  0  0  0  0
    2.8660   -2.6321    0.0000 C   0  0  0  0  0  0  0  0  0  0  0  0
    3.3660   -1.7660    0.0000 C   0  0  0  0  0  0  0  0  0  0  0  0
    4.5640   -0.6912    0.0000 C   0  0  0  0  0  0  0  0  0  0  0  0
    3.6979   -0.1912    0.0000 C   0  0  0  0  0  0  0  0  0  0  0  0
    5.4300   -0.1912    0.0000 C   0  0  0  0  0  0  0  0  0  0  0  0
    3.6979    0.8088    0.0000 C   0  0  0  0  0  0  0  0  0  0  0  0
    5.4300    0.8088    0.0000 C   0  0  0  0  0  0  0  0  0  0  0  0
    2.3660   -3.4981    0.0000 C   0  0  0  0  0  0  0  0  0  0  0  0
    2.0000   -2.1321    0.0000 C   0  0  0  0  0  0  0  0  0  0  0  0
    3.7320   -3.1321    0.0000 C   0  0  0  0  0  0  0  0  0  0  0  0
    4.5640    1.3088    0.0000 C   0  0  0  0  0  0  0  0  0  0  0  0
    6.3239   -0.7258    0.0000 C   0  0  0  0  0  0  0  0  0  0  0  0
    2.7879    1.3157    0.0000 C   0  0  0  0  0  0  0  0  0  0  0  0
    6.3239    1.3435    0.0000 C   0  0  0  0  0  0  0  0  0  0  0  0
    4.5800    2.3503    0.0000 C   0  0  0  0  0  0  0  0  0  0  0  0
    7.2300   -0.2120    0.0000 C   0  0  0  0  0  0  0  0  0  0  0  0
    2.7799    2.3573    0.0000 C   0  0  0  0  0  0  0  0  0  0  0  0
    7.2300    0.8296    0.0000 C   0  0  0  0  0  0  0  0  0  0  0  0
    4.7688   -2.1244    0.0000 H   0  0  0  0  0  0  0  0  0  0  0  0
    1.8291   -3.1881    0.0000 H   0  0  0  0  0  0  0  0  0  0  0  0
    2.0560   -4.0350    0.0000 H   0  0  0  0  0  0  0  0  0  0  0  0
    2.3100   -1.5951    0.0000 H   0  0  0  0  0  0  0  0  0  0  0  0
    1.4631   -1.8221    0.0000 H   0  0  0  0  0  0  0  0  0  0  0  0
    1.6900   -2.6690    0.0000 H   0  0  0  0  0  0  0  0  0  0  0  0
    3.4220   -3.6690    0.0000 H   0  0  0  0  0  0  0  0  0  0  0  0
    4.2690   -3.4421    0.0000 H   0  0  0  0  0  0  0  0  0  0  0  0
    4.0420   -2.5951    0.0000 H   0  0  0  0  0  0  0  0  0  0  0  0
    2.9030   -3.8081    0.0000 H   0  0  0  0  0  0  0  0  0  0  0  0
    6.3168   -1.3458    0.0000 H   0  0  0  0  0  0  0  0  0  0  0  0
    2.2546    0.9995    0.0000 H   0  0  0  0  0  0  0  0  0  0  0  0
    6.3168    1.9634    0.0000 H   0  0  0  0  0  0  0  0  0  0  0  0
    7.7657   -0.5240    0.0000 H   0  0  0  0  0  0  0  0  0  0  0  0
    2.2418    2.6652    0.0000 H   0  0  0  0  0  0  0  0  0  0  0  0
    3.6844    3.4981    0.0000 H   0  0  0  0  0  0  0  0  0  0  0  0
  1 23  1  0  0  0  0
  2 20  2  0  0  0  0
  3  7  1  0  0  0  0
  3  8  1  0  0  0  0
  3 24  1  0  0  0  0
  4  7  2  0  0  0  0
  4  9  1  0  0  0  0
  5 20  1  0  0  0  0
  5 22  1  0  0  0  0
  5 39  1  0  0  0  0
  6  7  1  0  0  0  0
  6 13  1  0  0  0  0
  6 14  1  0  0  0  0
  6 15  1  0  0  0  0
  8  9  2  0  0  0  0
  8 10  1  0  0  0  0
  9 11  1  0  0  0  0
 10 12  2  0  0  0  0
 10 17  1  0  0  0  0
 11 16  2  0  0  0  0
 11 18  1  0  0  0  0
 12 16  1  0  0  0  0
 12 19  1  0  0  0  0
 13 25  1  0  0  0  0
 13 26  1  0  0  0  0
 13 33  1  0  0  0  0
 14 27  1  0  0  0  0
 14 28  1  0  0  0  0
 14 29  1  0  0  0  0
 15 30  1  0  0  0  0
 15 31  1  0  0  0  0
 15 32  1  0  0  0  0
 16 20  1  0  0  0  0
 17 21  2  0  0  0  0
 17 34  1  0  0  0  0
 18 22  2  0  0  0  0
 18 35  1  0  0  0  0
 19 23  2  0  0  0  0
 19 36  1  0  0  0  0
 21 23  1  0  0  0  0
 21 37  1  0  0  0  0
 22 38  1  0  0  0  0
M  END
> <PUBCHEM_COMPOUND_CID>
5494425

> <PUBCHEM_COMPOUND_CANONICALIZED>
1

> <PUBCHEM_CACTVS_COMPLEXITY>
529

> <PUBCHEM_CACTVS_HBOND_ACCEPTOR>
3

> <PUBCHEM_CACTVS_HBOND_DONOR>
2

> <PUBCHEM_CACTVS_ROTATABLE_BOND>
1

> <PUBCHEM_CACTVS_SUBSKEYS>
AAADceB7IQAAAAAAAAAAAAAAAAAAAWAAAAAwYIAAAAAAAFjB9AAAHwAQAAAADgjBnwwz0PbJkACoAyd2dACCgC2lEqAJmaEoVNiIaLLAnZGUIQhoggLIySccicCeyAACQAASACCQAASAACQAQAAAAAAAAA==

> <PUBCHEM_IUPAC_INCHI>
InChI=1S/C18H16FN3O/c1-18(2,3)17-21-14-10-5-4-9(19)8-12(10)13-11(15(14)22-17)6-7-20-16(13)23/h4-8H,1-3H3,(H,20,23)(H,21,22)

> <PUBCHEM_IUPAC_INCHIKEY>
VNDWQCSOSCCWIP-UHFFFAOYSA-N

> <PUBCHEM_XLOGP3_AA>
4

> <PUBCHEM_EXACT_MASS>
309.128

> <PUBCHEM_MOLECULAR_FORMULA>
C18H16FN3O

> <PUBCHEM_MOLECULAR_WEIGHT>
309.344

> <PUBCHEM_OPENEYE_CAN_SMILES>
CC(C)(C)C1=NC2=C(N1)C3=C(C=C(C=C3)F)C4=C2C=CNC4=O

> <PUBCHEM_OPENEYE_ISO_SMILES>
CC(C)(C)C1=NC2=C(N1)C3=C(C=C(C=C3)F)C4=C2C=CNC4=O

> <PUBCHEM_CACTVS_TPSA>
57.8

> <PUBCHEM_MONOISOTOPIC_WEIGHT>
309.128

> <PUBCHEM_TOTAL_CHARGE>
0

> <PUBCHEM_HEAVY_ATOM_COUNT>
23

> <PUBCHEM_ATOM_DEF_STEREO_COUNT>
0

> <PUBCHEM_ATOM_UDEF_STEREO_COUNT>
0

> <PUBCHEM_BOND_DEF_STEREO_COUNT>
0

> <PUBCHEM_BOND_UDEF_STEREO_COUNT>
0

> <PUBCHEM_ISOTOPIC_ATOM_COUNT>
0

> <PUBCHEM_COMPONENT_COUNT>
1

> <PUBCHEM_CACTVS_TAUTO_COUNT>
13

> <PUBCHEM_COORDINATE_TYPE>
1
5
255

> <PUBCHEM_BONDANNOTATIONS>
10  12  8
10  17  8
11  16  8
11  18  8
12  16  8
12  19  8
16  20  8
17  21  8
18  22  8
19  23  8
21  23  8
3  7  8
3  8  8
4  7  8
4  9  8
5  20  8
5  22  8
8  10  8
8  9  8
9  11  8

$$$$
5330797
  -OEChem-11021605012D

 36 41  0     0  0  0  0  0  0999 V2000
    2.7657   -4.3125    0.0000 Br  0  0  0  0  0  0  0  0  0  0  0  0
    6.3326   -1.2994    0.0000 O   0  0  0  0  0  0  0  0  0  0  0  0
    6.3326    2.2111    0.0000 O   0  0  0  0  0  0  0  0  0  0  0  0
    2.6067   -0.7113    0.0000 N   0  0  0  0  0  0  0  0  0  0  0  0
    2.6067    1.6229    0.0000 N   0  0  0  0  0  0  0  0  0  0  0  0
    6.6056    0.4558    0.0000 N   0  0  0  0  0  0  0  0  0  0  0  0
    4.2097   -0.5442    0.0000 C   0  0  0  0  0  0  0  0  0  0  0  0
    3.3437   -0.0442    0.0000 C   0  0  0  0  0  0  0  0  0  0  0  0
    4.2097    1.4558    0.0000 C   0  0  0  0  0  0  0  0  0  0  0  0
    3.3437    0.9558    0.0000 C   0  0  0  0  0  0  0  0  0  0  0  0
    5.0757   -0.0442    0.0000 C   0  0  0  0  0  0  0  0  0  0  0  0
    5.0757    0.9558    0.0000 C   0  0  0  0  0  0  0  0  0  0  0  0
    4.0005   -1.5160    0.0000 C   0  0  0  0  0  0  0  0  0  0  0  0
    4.0005    2.4276    0.0000 C   0  0  0  0  0  0  0  0  0  0  0  0
    3.0118   -1.6191    0.0000 C   0  0  0  0  0  0  0  0  0  0  0  0
    3.0118    2.5307    0.0000 C   0  0  0  0  0  0  0  0  0  0  0  0
    6.0220   -0.3489    0.0000 C   0  0  0  0  0  0  0  0  0  0  0  0
    6.0220    1.2605    0.0000 C   0  0  0  0  0  0  0  0  0  0  0  0
    4.6213   -2.3448    0.0000 C   0  0  0  0  0  0  0  0  0  0  0  0
    4.6213    3.2564    0.0000 C   0  0  0  0  0  0  0  0  0  0  0  0
    2.5753   -2.5580    0.0000 C   0  0  0  0  0  0  0  0  0  0  0  0
    2.5753    3.4696    0.0000 C   0  0  0  0  0  0  0  0  0  0  0  0
    4.2066   -3.2936    0.0000 C   0  0  0  0  0  0  0  0  0  0  0  0
    4.2066    4.2052    0.0000 C   0  0  0  0  0  0  0  0  0  0  0  0
    3.1767   -3.4009    0.0000 C   0  0  0  0  0  0  0  0  0  0  0  0
    3.1767    4.3125    0.0000 C   0  0  0  0  0  0  0  0  0  0  0  0
    2.0000   -0.5834    0.0000 H   0  0  0  0  0  0  0  0  0  0  0  0
    2.0000    1.4950    0.0000 H   0  0  0  0  0  0  0  0  0  0  0  0
    7.2256    0.4558    0.0000 H   0  0  0  0  0  0  0  0  0  0  0  0
    5.2371   -2.2734    0.0000 H   0  0  0  0  0  0  0  0  0  0  0  0
    5.2371    3.1850    0.0000 H   0  0  0  0  0  0  0  0  0  0  0  0
    1.9579   -2.6152    0.0000 H   0  0  0  0  0  0  0  0  0  0  0  0
    1.9579    3.5268    0.0000 H   0  0  0  0  0  0  0  0  0  0  0  0
    4.5725   -3.7941    0.0000 H   0  0  0  0  0  0  0  0  0  0  0  0
    4.5725    4.7057    0.0000 H   0  0  0  0  0  0  0  0  0  0  0  0
    2.9219    4.8777    0.0000 H   0  0  0  0  0  0  0  0  0  0  0  0
  1 25  1  0  0  0  0
  2 17  2  0  0  0  0
  3 18  2  0  0  0  0
  4  8  1  0  0  0  0
  4 15  1  0  0  0  0
  4 27  1  0  0  0  0
  5 10  1  0  0  0  0
  5 16  1  0  0  0  0
  5 28  1  0  0  0  0
  6 17  1  0  0  0  0
  6 18  1  0  0  0  0
  6 29  1  0  0  0  0
  7  8  1  0  0  0  0
  7 11  2  0  0  0  0
  7 13  1  0  0  0  0
  8 10  2  0  0  0  0
  9 10  1  0  0  0  0
  9 12  2  0  0  0  0
  9 14  1  0  0  0  0
 11 12  1  0  0  0  0
 11 17  1  0  0  0  0
 12 18  1  0  0  0  0
 13 15  2  0  0  0  0
 13 19  1  0  0  0  0
 14 16  1  0  0  0  0
 14 20  2  0  0  0  0
 15 21  1  0  0  0  0
 16 22  2  0  0  0  0
 19 23  2  0  0  0  0
 19 30  1  0  0  0  0
 20 24  1  0  0  0  0
 20 31  1  0  0  0  0
 21 25  2  0  0  0  0
 21 32  1  0  0  0  0
 22 26  1  0  0  0  0
 22 33  1  0  0  0  0
 23 25  1  0  0  0  0
 23 34  1  0  0  0  0
 24 26  2  0  0  0  0
 24 35  1  0  0  0  0
 26 36  1  0  0  0  0
M  END
> <PUBCHEM_COMPOUND_CID>
5330797

> <PUBCHEM_COMPOUND_CANONICALIZED>
1

> <PUBCHEM_CACTVS_COMPLEXITY>
657

> <PUBCHEM_CACTVS_HBOND_ACCEPTOR>
2

> <PUBCHEM_CACTVS_HBOND_DONOR>
3

> <PUBCHEM_CACTVS_ROTATABLE_BOND>
0

> <PUBCHEM_CACTVS_SUBSKEYS>
AAADccB7MAAAEAAAAAAAAAAAAAAAAWLFgAAwYMAAAAAAAFgB/gAAHgBQAAABrAiBngAwwPLJkACoAyVyVACCgCQlEiQImSEwdPgIYPLAlZGUIQhglCDIyxcdicCeygACQAESACCUAASAAiQAQAAAAAAAAA==

> <PUBCHEM_IUPAC_INCHI>
InChI=1S/C20H10BrN3O2/c21-8-5-6-10-12(7-8)23-18-14(10)16-15(19(25)24-20(16)26)13-9-3-1-2-4-11(9)22-17(13)18/h1-7,22-23H,(H,24,25,26)

> <PUBCHEM_IUPAC_INCHIKEY>
NMFKDDRQSNVETB-UHFFFAOYSA-N

> <PUBCHEM_XLOGP3_AA>
4.3

> <PUBCHEM_EXACT_MASS>
402.996

> <PUBCHEM_MOLECULAR_FORMULA>
C20H10BrN3O2

> <PUBCHEM_MOLECULAR_WEIGHT>
404.223

> <PUBCHEM_OPENEYE_CAN_SMILES>
C1=CC=C2C(=C1)C3=C4C(=C5C6=C(C=C(C=C6)Br)NC5=C3N2)C(=O)NC4=O

> <PUBCHEM_OPENEYE_ISO_SMILES>
C1=CC=C2C(=C1)C3=C4C(=C5C6=C(C=C(C=C6)Br)NC5=C3N2)C(=O)NC4=O

> <PUBCHEM_CACTVS_TPSA>
77.8

> <PUBCHEM_MONOISOTOPIC_WEIGHT>
402.996

> <PUBCHEM_TOTAL_CHARGE>
0

> <PUBCHEM_HEAVY_ATOM_COUNT>
26

> <PUBCHEM_ATOM_DEF_STEREO_COUNT>
0

> <PUBCHEM_ATOM_UDEF_STEREO_COUNT>
0

> <PUBCHEM_BOND_DEF_STEREO_COUNT>
0

> <PUBCHEM_BOND_UDEF_STEREO_COUNT>
0

> <PUBCHEM_ISOTOPIC_ATOM_COUNT>
0

> <PUBCHEM_COMPONENT_COUNT>
1

> <PUBCHEM_CACTVS_TAUTO_COUNT>
204

> <PUBCHEM_COORDINATE_TYPE>
1
5
255

> <PUBCHEM_BONDANNOTATIONS>
11  12  8
13  15  8
13  19  8
14  16  8
14  20  8
15  21  8
16  22  8
19  23  8
20  24  8
21  25  8
22  26  8
23  25  8
24  26  8
4  15  8
4  8  8
5  10  8
5  16  8
7  11  8
7  13  8
7  8  8
8  10  8
9  10  8
9  12  8
9  14  8

$$$$
5311510
  -OEChem-11021605012D

 40 42  0     0  0  0  0  0  0999 V2000
    2.0000   -5.4720    0.0000 F   0  0  0  0  0  0  0  0  0  0  0  0
    3.3660   -5.8380    0.0000 F   0  0  0  0  0  0  0  0  0  0  0  0
    2.3660   -4.1060    0.0000 F   0  0  0  0  0  0  0  0  0  0  0  0
    3.7320   -4.4720    0.0000 O   0  0  0  0  0  0  0  0  0  0  0  0
    2.8660    4.0280    0.0000 O   0  0  0  0  0  0  0  0  0  0  0  0
    3.7320   -0.4720    0.0000 N   0  0  0  0  0  0  0  0  0  0  0  0
    6.3301    1.0280    0.0000 N   0  0  0  0  0  0  0  0  0  0  0  0
    5.4641   -0.4720    0.0000 N   0  0  0  0  0  0  0  0  0  0  0  0
    3.7320    5.5280    0.0000 N   0  0  0  0  0  0  0  0  0  0  0  0
    5.4641    2.5280    0.0000 C   0  0  0  0  0  0  0  0  0  0  0  0
    5.4641    1.5280    0.0000 C   0  0  0  0  0  0  0  0  0  0  0  0
    3.7320   -1.4720    0.0000 C   0  0  0  0  0  0  0  0  0  0  0  0
    4.5981    0.0280    0.0000 C   0  0  0  0  0  0  0  0  0  0  0  0
    4.5981    1.0280    0.0000 C   0  0  0  0  0  0  0  0  0  0  0  0
    4.5981    3.0280    0.0000 C   0  0  0  0  0  0  0  0  0  0  0  0
    4.5981    4.0280    0.0000 C   0  0  0  0  0  0  0  0  0  0  0  0
    6.3301    3.0280    0.0000 C   0  0  0  0  0  0  0  0  0  0  0  0
    2.8660   -1.9720    0.0000 C   0  0  0  0  0  0  0  0  0  0  0  0
    4.5981   -1.9720    0.0000 C   0  0  0  0  0  0  0  0  0  0  0  0
    5.4641    4.5280    0.0000 C   0  0  0  0  0  0  0  0  0  0  0  0
    6.3301    4.0280    0.0000 C   0  0  0  0  0  0  0  0  0  0  0  0
    3.7320   -3.4720    0.0000 C   0  0  0  0  0  0  0  0  0  0  0  0
    2.8660   -2.9720    0.0000 C   0  0  0  0  0  0  0  0  0  0  0  0
    4.5981   -2.9720    0.0000 C   0  0  0  0  0  0  0  0  0  0  0  0
    6.3301    0.0280    0.0000 C   0  0  0  0  0  0  0  0  0  0  0  0
    3.7320    4.5280    0.0000 C   0  0  0  0  0  0  0  0  0  0  0  0
    2.8660   -4.9720    0.0000 C   0  0  0  0  0  0  0  0  0  0  0  0
    4.0611    1.3380    0.0000 H   0  0  0  0  0  0  0  0  0  0  0  0
    4.0611    2.7180    0.0000 H   0  0  0  0  0  0  0  0  0  0  0  0
    3.1951   -0.1620    0.0000 H   0  0  0  0  0  0  0  0  0  0  0  0
    6.8671    2.7180    0.0000 H   0  0  0  0  0  0  0  0  0  0  0  0
    2.3291   -1.6620    0.0000 H   0  0  0  0  0  0  0  0  0  0  0  0
    5.1350   -1.6620    0.0000 H   0  0  0  0  0  0  0  0  0  0  0  0
    5.4641    5.1480    0.0000 H   0  0  0  0  0  0  0  0  0  0  0  0
    6.8671    4.3380    0.0000 H   0  0  0  0  0  0  0  0  0  0  0  0
    2.3291   -3.2820    0.0000 H   0  0  0  0  0  0  0  0  0  0  0  0
    5.1350   -3.2820    0.0000 H   0  0  0  0  0  0  0  0  0  0  0  0
    6.8671   -0.2820    0.0000 H   0  0  0  0  0  0  0  0  0  0  0  0
    3.1951    5.8380    0.0000 H   0  0  0  0  0  0  0  0  0  0  0  0
    4.2690    5.8380    0.0000 H   0  0  0  0  0  0  0  0  0  0  0  0
  1 27  1  0  0  0  0
  2 27  1  0  0  0  0
  3 27  1  0  0  0  0
  4 22  1  0  0  0  0
  4 27  1  0  0  0  0
  5 26  2  0  0  0  0
  6 12  1  0  0  0  0
  6 13  1  0  0  0  0
  6 30  1  0  0  0  0
  7 11  1  0  0  0  0
  7 25  2  0  0  0  0
  8 13  2  0  0  0  0
  8 25  1  0  0  0  0
  9 26  1  0  0  0  0
  9 39  1  0  0  0  0
  9 40  1  0  0  0  0
 10 11  1  0  0  0  0
 10 15  2  0  0  0  0
 10 17  1  0  0  0  0
 11 14  2  0  0  0  0
 12 18  2  0  0  0  0
 12 19  1  0  0  0  0
 13 14  1  0  0  0  0
 14 28  1  0  0  0  0
 15 16  1  0  0  0  0
 15 29  1  0  0  0  0
 16 20  2  0  0  0  0
 16 26  1  0  0  0  0
 17 21  2  0  0  0  0
 17 31  1  0  0  0  0
 18 23  1  0  0  0  0
 18 32  1  0  0  0  0
 19 24  2  0  0  0  0
 19 33  1  0  0  0  0
 20 21  1  0  0  0  0
 20 34  1  0  0  0  0
 21 35  1  0  0  0  0
 22 23  2  0  0  0  0
 22 24  1  0  0  0  0
 23 36  1  0  0  0  0
 24 37  1  0  0  0  0
 25 38  1  0  0  0  0
M  END
> <PUBCHEM_COMPOUND_CID>
5311510

> <PUBCHEM_COMPOUND_CANONICALIZED>
1

> <PUBCHEM_CACTVS_COMPLEXITY>
498

> <PUBCHEM_CACTVS_HBOND_ACCEPTOR>
8

> <PUBCHEM_CACTVS_HBOND_DONOR>
2

> <PUBCHEM_CACTVS_ROTATABLE_BOND>
5

> <PUBCHEM_CACTVS_SUBSKEYS>
AAADccB7sYAAAAAAAAAAAAAAAAAAAAAAAAA8YIAAAAAAAAAB0AAAHwAQAAAADAyBnhQ19pbIFACoAydzdACCiCk1IqAJ2CE+bNiMLvLE/duENShs0BPI6ae4ycCeAEACAAAAAAAAgAQAAAAAAAAAAAAAAA==

> <PUBCHEM_IUPAC_OPENEYE_NAME>
3-[6-[4-(trifluoromethoxy)anilino]pyrimidin-4-yl]benzamide

> <PUBCHEM_IUPAC_CAS_NAME>
3-[6-[4-(trifluoromethoxy)anilino]-4-pyrimidinyl]benzamide

> <PUBCHEM_IUPAC_NAME>
3-[6-[4-(trifluoromethoxy)anilino]pyrimidin-4-yl]benzamide

> <PUBCHEM_IUPAC_SYSTEMATIC_NAME>
3-[6-[[4-(trifluoromethyloxy)phenyl]amino]pyrimidin-4-yl]benzamide

> <PUBCHEM_IUPAC_TRADITIONAL_NAME>
3-[6-[4-(trifluoromethoxy)anilino]pyrimidin-4-yl]benzamide

> <PUBCHEM_IUPAC_INCHI>
InChI=1S/C18H13F3N4O2/c19-18(20,21)27-14-6-4-13(5-7-14)25-16-9-15(23-10-24-16)11-2-1-3-12(8-11)17(22)26/h1-10H,(H2,22,26)(H,23,24,25)

> <PUBCHEM_IUPAC_INCHIKEY>
WEVYNIUIFUYDGI-UHFFFAOYSA-N

> <PUBCHEM_XLOGP3_AA>
3.8

> <PUBCHEM_EXACT_MASS>
374.099

> <PUBCHEM_MOLECULAR_FORMULA>
C18H13F3N4O2

> <PUBCHEM_MOLECULAR_WEIGHT>
374.323

> <PUBCHEM_OPENEYE_CAN_SMILES>
C1=CC(=CC(=C1)C(=O)N)C2=CC(=NC=N2)NC3=CC=C(C=C3)OC(F)(F)F

> <PUBCHEM_OPENEYE_ISO_SMILES>
C1=CC(=CC(=C1)C(=O)N)C2=CC(=NC=N2)NC3=CC=C(C=C3)OC(F)(F)F

> <PUBCHEM_CACTVS_TPSA>
90.1

> <PUBCHEM_MONOISOTOPIC_WEIGHT>
374.099

> <PUBCHEM_TOTAL_CHARGE>
0

> <PUBCHEM_HEAVY_ATOM_COUNT>
27

> <PUBCHEM_ATOM_DEF_STEREO_COUNT>
0

> <PUBCHEM_ATOM_UDEF_STEREO_COUNT>
0

> <PUBCHEM_BOND_DEF_STEREO_COUNT>
0

> <PUBCHEM_BOND_UDEF_STEREO_COUNT>
0

> <PUBCHEM_ISOTOPIC_ATOM_COUNT>
0

> <PUBCHEM_COMPONENT_COUNT>
1

> <PUBCHEM_CACTVS_TAUTO_COUNT>
6

> <PUBCHEM_COORDINATE_TYPE>
1
5
255

> <PUBCHEM_BONDANNOTATIONS>
10  15  8
10  17  8
11  14  8
12  18  8
12  19  8
13  14  8
15  16  8
16  20  8
17  21  8
18  23  8
19  24  8
20  21  8
22  23  8
22  24  8
7  11  8
7  25  8
8  13  8
8  25  8

$$$$
71450809
  -OEChem-11021605012D

 45 47  0     1  0  0  0  0  0999 V2000
    6.0010    2.7500    0.0000 S   0  0  0  0  0  0  0  0  0  0  0  0
    2.5369   -1.2500    0.0000 O   0  0  0  0  0  0  0  0  0  0  0  0
    6.8671    1.2500    0.0000 N   0  0  0  0  0  0  0  0  0  0  0  0
    3.4030   -4.7500    0.0000 N   0  0  0  0  0  0  0  0  0  0  0  0
    3.4030    2.2500    0.0000 N   0  0  0  0  0  0  0  0  0  0  0  0
    6.8671    3.2500    0.0000 C   0  0  3  0  0  0  0  0  0  0  0  0
    3.4030   -1.7500    0.0000 C   0  0  3  0  0  0  0  0  0  0  0  0
    4.2690   -1.2500    0.0000 C   0  0  0  0  0  0  0  0  0  0  0  0
    7.7331    2.7500    0.0000 C   0  0  0  0  0  0  0  0  0  0  0  0
    5.1350    0.2500    0.0000 C   0  0  0  0  0  0  0  0  0  0  0  0
    4.2690   -0.2500    0.0000 C   0  0  0  0  0  0  0  0  0  0  0  0
    3.4030   -2.7500    0.0000 C   0  0  0  0  0  0  0  0  0  0  0  0
    6.8671    4.2500    0.0000 C   0  0  0  0  0  0  0  0  0  0  0  0
    5.1350   -1.7500    0.0000 C   0  0  0  0  0  0  0  0  0  0  0  0
    8.5991    3.2500    0.0000 C   0  0  0  0  0  0  0  0  0  0  0  0
    5.1350    1.2500    0.0000 C   0  0  0  0  0  0  0  0  0  0  0  0
    6.0010    1.7500    0.0000 C   0  0  0  0  0  0  0  0  0  0  0  0
    6.0010   -0.2500    0.0000 C   0  0  0  0  0  0  0  0  0  0  0  0
    6.0010   -1.2500    0.0000 C   0  0  0  0  0  0  0  0  0  0  0  0
    7.7331    4.7500    0.0000 C   0  0  0  0  0  0  0  0  0  0  0  0
    8.5991    4.2500    0.0000 C   0  0  0  0  0  0  0  0  0  0  0  0
    2.5369   -3.2500    0.0000 C   0  0  0  0  0  0  0  0  0  0  0  0
    4.2690   -3.2500    0.0000 C   0  0  0  0  0  0  0  0  0  0  0  0
    2.5369   -4.2500    0.0000 C   0  0  0  0  0  0  0  0  0  0  0  0
    4.2690   -4.2500    0.0000 C   0  0  0  0  0  0  0  0  0  0  0  0
    4.2690    1.7500    0.0000 C   0  0  0  0  0  0  0  0  0  0  0  0
    6.3301    3.5600    0.0000 H   0  0  0  0  0  0  0  0  0  0  0  0
    3.4030   -1.1300    0.0000 H   0  0  0  0  0  0  0  0  0  0  0  0
    7.3346    2.2750    0.0000 H   0  0  0  0  0  0  0  0  0  0  0  0
    8.1316    2.2750    0.0000 H   0  0  0  0  0  0  0  0  0  0  0  0
    3.7320    0.0600    0.0000 H   0  0  0  0  0  0  0  0  0  0  0  0
    6.3301    4.5600    0.0000 H   0  0  0  0  0  0  0  0  0  0  0  0
    5.1350   -2.3700    0.0000 H   0  0  0  0  0  0  0  0  0  0  0  0
    9.1360    2.9400    0.0000 H   0  0  0  0  0  0  0  0  0  0  0  0
    6.5380    0.0600    0.0000 H   0  0  0  0  0  0  0  0  0  0  0  0
    6.5380   -1.5600    0.0000 H   0  0  0  0  0  0  0  0  0  0  0  0
    7.7331    5.3700    0.0000 H   0  0  0  0  0  0  0  0  0  0  0  0
    9.1360    4.5600    0.0000 H   0  0  0  0  0  0  0  0  0  0  0  0
    2.0000   -2.9400    0.0000 H   0  0  0  0  0  0  0  0  0  0  0  0
    4.8059   -2.9400    0.0000 H   0  0  0  0  0  0  0  0  0  0  0  0
    2.0000   -1.5600    0.0000 H   0  0  0  0  0  0  0  0  0  0  0  0
    2.0000   -4.5600    0.0000 H   0  0  0  0  0  0  0  0  0  0  0  0
    4.8059   -4.5600    0.0000 H   0  0  0  0  0  0  0  0  0  0  0  0
    7.4040    1.5600    0.0000 H   0  0  0  0  0  0  0  0  0  0  0  0
    6.8671    0.6300    0.0000 H   0  0  0  0  0  0  0  0  0  0  0  0
  1  6  1  0  0  0  0
  1 17  1  0  0  0  0
  2  7  1  0  0  0  0
  2 41  1  0  0  0  0
  3 17  1  0  0  0  0
  3 44  1  0  0  0  0
  3 45  1  0  0  0  0
  4 24  2  0  0  0  0
  4 25  1  0  0  0  0
  5 26  3  0  0  0  0
  6  9  1  0  0  0  0
  6 13  1  0  0  0  0
  6 27  1  0  0  0  0
  7  8  1  0  0  0  0
  7 12  1  0  0  0  0
  7 28  1  0  0  0  0
  8 11  2  0  0  0  0
  8 14  1  0  0  0  0
  9 15  1  0  0  0  0
  9 29  1  0  0  0  0
  9 30  1  0  0  0  0
 10 11  1  0  0  0  0
 10 16  1  0  0  0  0
 10 18  2  0  0  0  0
 11 31  1  0  0  0  0
 12 22  2  0  0  0  0
 12 23  1  0  0  0  0
 13 20  2  0  0  0  0
 13 32  1  0  0  0  0
 14 19  2  0  0  0  0
 14 33  1  0  0  0  0
 15 21  2  0  0  0  0
 15 34  1  0  0  0  0
 16 17  2  0  0  0  0
 16 26  1  0  0  0  0
 18 19  1  0  0  0  0
 18 35  1  0  0  0  0
 19 36  1  0  0  0  0
 20 21  1  0  0  0  0
 20 37  1  0  0  0  0
 21 38  1  0  0  0  0
 22 24  1  0  0  0  0
 22 39  1  0  0  0  0
 23 25  2  0  0  0  0
 23 40  1  0  0  0  0
 24 42  1  0  0  0  0
 25 43  1  0  0  0  0
M  END
> <PUBCHEM_COMPOUND_CID>
71450809

> <PUBCHEM_COMPOUND_CANONICALIZED>
1

> <PUBCHEM_CACTVS_COMPLEXITY>
612

> <PUBCHEM_CACTVS_HBOND_ACCEPTOR>
5

> <PUBCHEM_CACTVS_HBOND_DONOR>
2

> <PUBCHEM_CACTVS_ROTATABLE_BOND>
5

> <PUBCHEM_CACTVS_SUBSKEYS>
AAADceB7IABAAAAAAAAAAAAAAAAAAAAAAAA8QIAAAAAAAAABwAAAHgQQCAAADBTl2ga8gJJIEgiwBjBnRACigCBxAjAI2CA4bJgItmLgkZGEcAhkwAHI2A+wwOAOAAACAAAAAAAAAAQAAAAAAAAAAAAAAA==

> <PUBCHEM_IUPAC_OPENEYE_NAME>
(Z)-3-amino-3-cyclohexa-2,4-dien-1-ylsulfanyl-2-[3-[hydroxy(4-pyridyl)methyl]phenyl]prop-2-enenitrile

> <PUBCHEM_IUPAC_CAS_NAME>
(Z)-3-amino-3-(1-cyclohexa-2,4-dienylthio)-2-[3-[hydroxy(pyridin-4-yl)methyl]phenyl]-2-propenenitrile

> <PUBCHEM_IUPAC_NAME>
(Z)-3-amino-3-cyclohexa-2,4-dien-1-ylsulfanyl-2-[3-[hydroxy(pyridin-4-yl)methyl]phenyl]prop-2-enenitrile

> <PUBCHEM_IUPAC_SYSTEMATIC_NAME>
(Z)-3-azanyl-3-cyclohexa-2,4-dien-1-ylsulfanyl-2-[3-[oxidanyl(pyridin-4-yl)methyl]phenyl]prop-2-enenitrile

> <PUBCHEM_IUPAC_TRADITIONAL_NAME>
(Z)-3-amino-3-(cyclohexa-2,4-dien-1-ylthio)-2-[3-[hydroxy(4-pyridyl)methyl]phenyl]acrylonitrile

> <PUBCHEM_IUPAC_INCHI>
InChI=1S/C21H19N3OS/c22-14-19(21(23)26-18-7-2-1-3-8-18)16-5-4-6-17(13-16)20(25)15-9-11-24-12-10-15/h1-7,9-13,18,20,25H,8,23H2/b21-19+

> <PUBCHEM_IUPAC_INCHIKEY>
YYDPEIRKANIXMV-XUTLUUPISA-N

> <PUBCHEM_XLOGP3_AA>
3.2

> <PUBCHEM_EXACT_MASS>
361.125

> <PUBCHEM_MOLECULAR_FORMULA>
C21H19N3OS

> <PUBCHEM_MOLECULAR_WEIGHT>
361.463

> <PUBCHEM_OPENEYE_CAN_SMILES>
C1C=CC=CC1SC(=C(C#N)C2=CC(=CC=C2)C(C3=CC=NC=C3)O)N

> <PUBCHEM_OPENEYE_ISO_SMILES>
C1C=CC=CC1S/C(=C(\C#N)/C2=CC(=CC=C2)C(C3=CC=NC=C3)O)/N

> <PUBCHEM_CACTVS_TPSA>
108

> <PUBCHEM_MONOISOTOPIC_WEIGHT>
361.125

> <PUBCHEM_TOTAL_CHARGE>
0

> <PUBCHEM_HEAVY_ATOM_COUNT>
26

> <PUBCHEM_ATOM_DEF_STEREO_COUNT>
0

> <PUBCHEM_ATOM_UDEF_STEREO_COUNT>
2

> <PUBCHEM_BOND_DEF_STEREO_COUNT>
1

> <PUBCHEM_BOND_UDEF_STEREO_COUNT>
0

> <PUBCHEM_ISOTOPIC_ATOM_COUNT>
0

> <PUBCHEM_COMPONENT_COUNT>
1

> <PUBCHEM_CACTVS_TAUTO_COUNT>
2

> <PUBCHEM_COORDINATE_TYPE>
1
5
255

> <PUBCHEM_BONDANNOTATIONS>
6  1  3
10  11  8
10  18  8
12  22  8
12  23  8
14  19  8
18  19  8
7  2  3
22  24  8
23  25  8
4  24  8
4  25  8
8  11  8
8  14  8

$$$$
9797919
  -OEChem-11021605012D

 40 42  0     0  0  0  0  0  0999 V2000
    8.0622    3.7500    0.0000 Cl  0  0  0  0  0  0  0  0  0  0  0  0
    6.3301   -0.2500    0.0000 O   0  0  0  0  0  0  0  0  0  0  0  0
    5.4641   -1.7500    0.0000 N   0  0  0  0  0  0  0  0  0  0  0  0
    8.0622   -0.2500    0.0000 N   0  0  0  0  0  0  0  0  0  0  0  0
    2.0000   -0.7500    0.0000 N   0  0  0  0  0  0  0  0  0  0  0  0
    6.3301   -2.2500    0.0000 C   0  0  0  0  0  0  0  0  0  0  0  0
    7.1962   -1.7500    0.0000 C   0  0  0  0  0  0  0  0  0  0  0  0
    4.5981   -2.2500    0.0000 C   0  0  0  0  0  0  0  0  0  0  0  0
    3.7320   -1.7500    0.0000 C   0  0  0  0  0  0  0  0  0  0  0  0
    6.3301   -3.2500    0.0000 C   0  0  0  0  0  0  0  0  0  0  0  0
    8.0622   -2.2500    0.0000 C   0  0  0  0  0  0  0  0  0  0  0  0
    7.1962   -0.7500    0.0000 C   0  0  0  0  0  0  0  0  0  0  0  0
    7.1962   -3.7500    0.0000 C   0  0  0  0  0  0  0  0  0  0  0  0
    8.0622   -3.2500    0.0000 C   0  0  0  0  0  0  0  0  0  0  0  0
    8.0622    0.7500    0.0000 C   0  0  0  0  0  0  0  0  0  0  0  0
    2.8660   -2.2500    0.0000 C   0  0  0  0  0  0  0  0  0  0  0  0
    3.7320   -0.7500    0.0000 C   0  0  0  0  0  0  0  0  0  0  0  0
    8.9282    1.2500    0.0000 C   0  0  0  0  0  0  0  0  0  0  0  0
    7.1962    1.2500    0.0000 C   0  0  0  0  0  0  0  0  0  0  0  0
    2.0000   -1.7500    0.0000 C   0  0  0  0  0  0  0  0  0  0  0  0
    2.8660   -0.2500    0.0000 C   0  0  0  0  0  0  0  0  0  0  0  0
    8.9282    2.2500    0.0000 C   0  0  0  0  0  0  0  0  0  0  0  0
    7.1962    2.2500    0.0000 C   0  0  0  0  0  0  0  0  0  0  0  0
    8.0622    2.7500    0.0000 C   0  0  0  0  0  0  0  0  0  0  0  0
    4.1996   -2.7250    0.0000 H   0  0  0  0  0  0  0  0  0  0  0  0
    4.9966   -2.7250    0.0000 H   0  0  0  0  0  0  0  0  0  0  0  0
    5.4641   -1.1300    0.0000 H   0  0  0  0  0  0  0  0  0  0  0  0
    5.7932   -3.5600    0.0000 H   0  0  0  0  0  0  0  0  0  0  0  0
    8.5991   -1.9400    0.0000 H   0  0  0  0  0  0  0  0  0  0  0  0
    7.1962   -4.3700    0.0000 H   0  0  0  0  0  0  0  0  0  0  0  0
    8.5991   -3.5600    0.0000 H   0  0  0  0  0  0  0  0  0  0  0  0
    8.5991   -0.5600    0.0000 H   0  0  0  0  0  0  0  0  0  0  0  0
    2.8660   -2.8700    0.0000 H   0  0  0  0  0  0  0  0  0  0  0  0
    4.2690   -0.4400    0.0000 H   0  0  0  0  0  0  0  0  0  0  0  0
    9.4651    0.9400    0.0000 H   0  0  0  0  0  0  0  0  0  0  0  0
    6.6592    0.9400    0.0000 H   0  0  0  0  0  0  0  0  0  0  0  0
    1.4631   -2.0600    0.0000 H   0  0  0  0  0  0  0  0  0  0  0  0
    2.8660    0.3700    0.0000 H   0  0  0  0  0  0  0  0  0  0  0  0
    9.4651    2.5600    0.0000 H   0  0  0  0  0  0  0  0  0  0  0  0
    6.6592    2.5600    0.0000 H   0  0  0  0  0  0  0  0  0  0  0  0
  1 24  1  0  0  0  0
  2 12  2  0  0  0  0
  3  6  1  0  0  0  0
  3  8  1  0  0  0  0
  3 27  1  0  0  0  0
  4 12  1  0  0  0  0
  4 15  1  0  0  0  0
  4 32  1  0  0  0  0
  5 20  2  0  0  0  0
  5 21  1  0  0  0  0
  6  7  1  0  0  0  0
  6 10  2  0  0  0  0
  7 11  2  0  0  0  0
  7 12  1  0  0  0  0
  8  9  1  0  0  0  0
  8 25  1  0  0  0  0
  8 26  1  0  0  0  0
  9 16  2  0  0  0  0
  9 17  1  0  0  0  0
 10 13  1  0  0  0  0
 10 28  1  0  0  0  0
 11 14  1  0  0  0  0
 11 29  1  0  0  0  0
 13 14  2  0  0  0  0
 13 30  1  0  0  0  0
 14 31  1  0  0  0  0
 15 18  2  0  0  0  0
 15 19  1  0  0  0  0
 16 20  1  0  0  0  0
 16 33  1  0  0  0  0
 17 21  2  0  0  0  0
 17 34  1  0  0  0  0
 18 22  1  0  0  0  0
 18 35  1  0  0  0  0
 19 23  2  0  0  0  0
 19 36  1  0  0  0  0
 20 37  1  0  0  0  0
 21 38  1  0  0  0  0
 22 24  2  0  0  0  0
 22 39  1  0  0  0  0
 23 24  1  0  0  0  0
 23 40  1  0  0  0  0
M  END
> <PUBCHEM_COMPOUND_CID>
9797919

> <PUBCHEM_COMPOUND_CANONICALIZED>
1

> <PUBCHEM_CACTVS_COMPLEXITY>
392

> <PUBCHEM_CACTVS_HBOND_ACCEPTOR>
3

> <PUBCHEM_CACTVS_HBOND_DONOR>
2

> <PUBCHEM_CACTVS_ROTATABLE_BOND>
5

> <PUBCHEM_CACTVS_SUBSKEYS>
AAADceB7IAAEAAAAAAAAAAAAAAAAAAAAAAA8YIAAAAAAAAAB0AAAHgIQAAAADArBmiQ8wJLIEACoAjV3VACCgCA1ByAI2KE4ZtgIIHrB15GEIYhglADIyccYiACOAABAAAACAAAAAIAAAAQAAAAAAAAAAA==

> <PUBCHEM_IUPAC_OPENEYE_NAME>
N-(4-chlorophenyl)-2-(4-pyridylmethylamino)benzamide

> <PUBCHEM_IUPAC_CAS_NAME>
N-(4-chlorophenyl)-2-(pyridin-4-ylmethylamino)benzamide

> <PUBCHEM_IUPAC_NAME>
N-(4-chlorophenyl)-2-(pyridin-4-ylmethylamino)benzamide

> <PUBCHEM_IUPAC_SYSTEMATIC_NAME>
N-(4-chlorophenyl)-2-(pyridin-4-ylmethylamino)benzamide

> <PUBCHEM_IUPAC_TRADITIONAL_NAME>
N-(4-chlorophenyl)-2-(4-pyridylmethylamino)benzamide

> <PUBCHEM_IUPAC_INCHI>
InChI=1S/C19H16ClN3O/c20-15-5-7-16(8-6-15)23-19(24)17-3-1-2-4-18(17)22-13-14-9-11-21-12-10-14/h1-12,22H,13H2,(H,23,24)

> <PUBCHEM_IUPAC_INCHIKEY>
GGPZCOONYBPZEW-UHFFFAOYSA-N

> <PUBCHEM_XLOGP3_AA>
4.3

> <PUBCHEM_EXACT_MASS>
337.098

> <PUBCHEM_MOLECULAR_FORMULA>
C19H16ClN3O

> <PUBCHEM_MOLECULAR_WEIGHT>
337.807

> <PUBCHEM_OPENEYE_CAN_SMILES>
C1=CC=C(C(=C1)C(=O)NC2=CC=C(C=C2)Cl)NCC3=CC=NC=C3

> <PUBCHEM_OPENEYE_ISO_SMILES>
C1=CC=C(C(=C1)C(=O)NC2=CC=C(C=C2)Cl)NCC3=CC=NC=C3

> <PUBCHEM_CACTVS_TPSA>
54

> <PUBCHEM_MONOISOTOPIC_WEIGHT>
337.098

> <PUBCHEM_TOTAL_CHARGE>
0

> <PUBCHEM_HEAVY_ATOM_COUNT>
24

> <PUBCHEM_ATOM_DEF_STEREO_COUNT>
0

> <PUBCHEM_ATOM_UDEF_STEREO_COUNT>
0

> <PUBCHEM_BOND_DEF_STEREO_COUNT>
0

> <PUBCHEM_BOND_UDEF_STEREO_COUNT>
0

> <PUBCHEM_ISOTOPIC_ATOM_COUNT>
0

> <PUBCHEM_COMPONENT_COUNT>
1

> <PUBCHEM_CACTVS_TAUTO_COUNT>
7

> <PUBCHEM_COORDINATE_TYPE>
1
5
255

> <PUBCHEM_BONDANNOTATIONS>
10  13  8
11  14  8
13  14  8
15  18  8
15  19  8
16  20  8
17  21  8
18  22  8
19  23  8
22  24  8
23  24  8
5  20  8
5  21  8
6  10  8
6  7  8
7  11  8
9  16  8
9  17  8

$$$$
5289419
  -OEChem-11021605012D

 29 31  0     0  0  0  0  0  0999 V2000
    2.8660   -0.0089    0.0000 O   0  0  0  0  0  0  0  0  0  0  0  0
    7.9939   -1.0089    0.0000 O   0  0  0  0  0  0  0  0  0  0  0  0
    6.4103   -1.8136    0.0000 N   0  0  0  0  0  0  0  0  0  0  0  0
    8.1078    1.8654    0.0000 N   0  0  0  0  0  0  0  0  0  0  0  0
    9.3084    0.7807    0.0000 N   0  0  0  0  0  0  0  0  0  0  0  0
    5.4641   -0.5089    0.0000 C   0  0  0  0  0  0  0  0  0  0  0  0
    5.4641   -1.5089    0.0000 C   0  0  0  0  0  0  0  0  0  0  0  0
    6.4103   -0.2041    0.0000 C   0  0  0  0  0  0  0  0  0  0  0  0
    6.9939   -1.0089    0.0000 C   0  0  0  0  0  0  0  0  0  0  0  0
    4.5981   -0.0089    0.0000 C   0  0  0  0  0  0  0  0  0  0  0  0
    4.5981   -2.0089    0.0000 C   0  0  0  0  0  0  0  0  0  0  0  0
    6.7210    0.7464    0.0000 C   0  0  0  0  0  0  0  0  0  0  0  0
    3.7320   -0.5089    0.0000 C   0  0  0  0  0  0  0  0  0  0  0  0
    3.7320   -1.5089    0.0000 C   0  0  0  0  0  0  0  0  0  0  0  0
    7.6995    0.9526    0.0000 C   0  0  0  0  0  0  0  0  0  0  0  0
    8.4415    0.2822    0.0000 C   0  0  0  0  0  0  0  0  0  0  0  0
    9.1022    1.7592    0.0000 C   0  0  0  0  0  0  0  0  0  0  0  0
    2.0000   -0.5089    0.0000 C   0  0  0  0  0  0  0  0  0  0  0  0
    6.6029   -2.4029    0.0000 H   0  0  0  0  0  0  0  0  0  0  0  0
    4.5981    0.6111    0.0000 H   0  0  0  0  0  0  0  0  0  0  0  0
    4.5981   -2.6289    0.0000 H   0  0  0  0  0  0  0  0  0  0  0  0
    6.3069    1.2079    0.0000 H   0  0  0  0  0  0  0  0  0  0  0  0
    3.1951   -1.8189    0.0000 H   0  0  0  0  0  0  0  0  0  0  0  0
    7.7987    2.4029    0.0000 H   0  0  0  0  0  0  0  0  0  0  0  0
    8.3756   -0.3343    0.0000 H   0  0  0  0  0  0  0  0  0  0  0  0
    9.5178    2.2192    0.0000 H   0  0  0  0  0  0  0  0  0  0  0  0
    1.6900    0.0281    0.0000 H   0  0  0  0  0  0  0  0  0  0  0  0
    1.4631   -0.8189    0.0000 H   0  0  0  0  0  0  0  0  0  0  0  0
    2.3100   -1.0458    0.0000 H   0  0  0  0  0  0  0  0  0  0  0  0
  1 13  1  0  0  0  0
  1 18  1  0  0  0  0
  2  9  2  0  0  0  0
  3  7  1  0  0  0  0
  3  9  1  0  0  0  0
  3 19  1  0  0  0  0
  4 15  1  0  0  0  0
  4 17  1  0  0  0  0
  4 24  1  0  0  0  0
  5 16  1  0  0  0  0
  5 17  2  0  0  0  0
  6  7  2  0  0  0  0
  6  8  1  0  0  0  0
  6 10  1  0  0  0  0
  7 11  1  0  0  0  0
  8  9  1  0  0  0  0
  8 12  2  0  0  0  0
 10 13  2  0  0  0  0
 10 20  1  0  0  0  0
 11 14  2  0  0  0  0
 11 21  1  0  0  0  0
 12 15  1  0  0  0  0
 12 22  1  0  0  0  0
 13 14  1  0  0  0  0
 14 23  1  0  0  0  0
 15 16  2  0  0  0  0
 16 25  1  0  0  0  0
 17 26  1  0  0  0  0
 18 27  1  0  0  0  0
 18 28  1  0  0  0  0
 18 29  1  0  0  0  0
M  END
> <PUBCHEM_COMPOUND_CID>
5289419

> <PUBCHEM_COMPOUND_CANONICALIZED>
1

> <PUBCHEM_CACTVS_COMPLEXITY>
369

> <PUBCHEM_CACTVS_HBOND_ACCEPTOR>
3

> <PUBCHEM_CACTVS_HBOND_DONOR>
2

> <PUBCHEM_CACTVS_ROTATABLE_BOND>
2

> <PUBCHEM_CACTVS_SUBSKEYS>
AAADccBzMAAAAAAAAAAAAAAAAAAAAWLAAAAwAAAAAAAAAFgBwAAAHgAQAAAADAzBngY/1pbJlACoAzV3dACCiC2xMqAJ2YE+fNiMbjLEvZuUMChs1BPI6ae83LLOAEABAAACAAAAgAIAAAQAAAAAAAAAAA==

> <PUBCHEM_IUPAC_OPENEYE_NAME>
(3Z)-3-(1H-imidazol-5-ylmethylene)-5-methoxy-indolin-2-one

> <PUBCHEM_IUPAC_CAS_NAME>
(3Z)-3-(1H-imidazol-5-ylmethylidene)-5-methoxy-1H-indol-2-one

> <PUBCHEM_IUPAC_NAME>
(3Z)-3-(1H-imidazol-5-ylmethylidene)-5-methoxy-1H-indol-2-one

> <PUBCHEM_IUPAC_SYSTEMATIC_NAME>
(3Z)-3-(1H-imidazol-5-ylmethylidene)-5-methoxy-1H-indol-2-one

> <PUBCHEM_IUPAC_TRADITIONAL_NAME>
(3Z)-3-(1H-imidazol-5-ylmethylene)-5-methoxy-oxindole

> <PUBCHEM_IUPAC_INCHI>
InChI=1S/C13H11N3O2/c1-18-9-2-3-12-10(5-9)11(13(17)16-12)4-8-6-14-7-15-8/h2-7H,1H3,(H,14,15)(H,16,17)/b11-4-

> <PUBCHEM_IUPAC_INCHIKEY>
QNUKRWAIZMBVCU-WCIBSUBMSA-N

> <PUBCHEM_XLOGP3_AA>
1

> <PUBCHEM_EXACT_MASS>
241.085

> <PUBCHEM_MOLECULAR_FORMULA>
C13H11N3O2

> <PUBCHEM_MOLECULAR_WEIGHT>
241.25

> <PUBCHEM_OPENEYE_CAN_SMILES>
COC1=CC2=C(C=C1)NC(=O)C2=CC3=CN=CN3

> <PUBCHEM_OPENEYE_ISO_SMILES>
COC1=CC\2=C(C=C1)NC(=O)/C2=C\C3=CN=CN3

> <PUBCHEM_CACTVS_TPSA>
67

> <PUBCHEM_MONOISOTOPIC_WEIGHT>
241.085

> <PUBCHEM_TOTAL_CHARGE>
0

> <PUBCHEM_HEAVY_ATOM_COUNT>
18

> <PUBCHEM_ATOM_DEF_STEREO_COUNT>
0

> <PUBCHEM_ATOM_UDEF_STEREO_COUNT>
0

> <PUBCHEM_BOND_DEF_STEREO_COUNT>
1

> <PUBCHEM_BOND_UDEF_STEREO_COUNT>
0

> <PUBCHEM_ISOTOPIC_ATOM_COUNT>
0

> <PUBCHEM_COMPONENT_COUNT>
1

> <PUBCHEM_CACTVS_TAUTO_COUNT>
9

> <PUBCHEM_COORDINATE_TYPE>
1
5
255

> <PUBCHEM_BONDANNOTATIONS>
10  13  8
11  14  8
13  14  8
15  16  8
4  15  8
4  17  8
5  16  8
5  17  8
6  10  8
6  7  8
7  11  8

$$$$
456214
  -OEChem-11021605012D

 52 54  0     1  0  0  0  0  0999 V2000
    3.7320    4.4050    0.0000 Cl  0  0  0  0  0  0  0  0  0  0  0  0
    4.5981   -4.0950    0.0000 O   0  0  0  0  0  0  0  0  0  0  0  0
    3.7320   -1.5950    0.0000 N   0  0  0  0  0  0  0  0  0  0  0  0
    7.2764   -1.3997    0.0000 N   0  0  0  0  0  0  0  0  0  0  0  0
    5.4641   -1.5950    0.0000 N   0  0  0  0  0  0  0  0  0  0  0  0
    4.5981   -0.0950    0.0000 N   0  0  0  0  0  0  0  0  0  0  0  0
    7.2764    0.2097    0.0000 N   0  0  0  0  0  0  0  0  0  0  0  0
    5.4641    1.4050    0.0000 N   0  0  0  0  0  0  0  0  0  0  0  0
    3.7320   -2.5950    0.0000 C   0  0  2  0  0  0  0  0  0  0  0  0
    2.8660   -3.0950    0.0000 C   0  0  0  0  0  0  0  0  0  0  0  0
    4.5981   -3.0950    0.0000 C   0  0  0  0  0  0  0  0  0  0  0  0
    2.8660   -4.0950    0.0000 C   0  0  0  0  0  0  0  0  0  0  0  0
    2.0000   -2.5950    0.0000 C   0  0  0  0  0  0  0  0  0  0  0  0
    7.5870   -2.3502    0.0000 C   0  0  0  0  0  0  0  0  0  0  0  0
    6.3301   -1.0950    0.0000 C   0  0  0  0  0  0  0  0  0  0  0  0
    4.5981   -1.0950    0.0000 C   0  0  0  0  0  0  0  0  0  0  0  0
    6.3301   -0.0950    0.0000 C   0  0  0  0  0  0  0  0  0  0  0  0
    5.4641    0.4050    0.0000 C   0  0  0  0  0  0  0  0  0  0  0  0
    7.8600   -0.5950    0.0000 C   0  0  0  0  0  0  0  0  0  0  0  0
    8.5655   -2.5565    0.0000 C   0  0  0  0  0  0  0  0  0  0  0  0
    6.9192   -3.0946    0.0000 C   0  0  0  0  0  0  0  0  0  0  0  0
    4.5981    1.9050    0.0000 C   0  0  0  0  0  0  0  0  0  0  0  0
    4.5981    2.9050    0.0000 C   0  0  0  0  0  0  0  0  0  0  0  0
    3.7320    1.4050    0.0000 C   0  0  0  0  0  0  0  0  0  0  0  0
    3.7320    3.4050    0.0000 C   0  0  0  0  0  0  0  0  0  0  0  0
    2.8660    1.9050    0.0000 C   0  0  0  0  0  0  0  0  0  0  0  0
    2.8660    2.9050    0.0000 C   0  0  0  0  0  0  0  0  0  0  0  0
    4.2690   -2.2850    0.0000 H   0  0  0  0  0  0  0  0  0  0  0  0
    2.8660   -2.4750    0.0000 H   0  0  0  0  0  0  0  0  0  0  0  0
    3.1951   -1.2850    0.0000 H   0  0  0  0  0  0  0  0  0  0  0  0
    5.2087   -3.2027    0.0000 H   0  0  0  0  0  0  0  0  0  0  0  0
    4.8101   -2.5124    0.0000 H   0  0  0  0  0  0  0  0  0  0  0  0
    6.9803   -2.2224    0.0000 H   0  0  0  0  0  0  0  0  0  0  0  0
    2.2460   -4.0950    0.0000 H   0  0  0  0  0  0  0  0  0  0  0  0
    2.8660   -4.7150    0.0000 H   0  0  0  0  0  0  0  0  0  0  0  0
    3.4860   -4.0950    0.0000 H   0  0  0  0  0  0  0  0  0  0  0  0
    2.3100   -2.0581    0.0000 H   0  0  0  0  0  0  0  0  0  0  0  0
    1.4631   -2.2850    0.0000 H   0  0  0  0  0  0  0  0  0  0  0  0
    1.6900   -3.1319    0.0000 H   0  0  0  0  0  0  0  0  0  0  0  0
    8.4800   -0.5950    0.0000 H   0  0  0  0  0  0  0  0  0  0  0  0
    8.4377   -3.1632    0.0000 H   0  0  0  0  0  0  0  0  0  0  0  0
    9.1722   -2.6843    0.0000 H   0  0  0  0  0  0  0  0  0  0  0  0
    8.6934   -1.9498    0.0000 H   0  0  0  0  0  0  0  0  0  0  0  0
    6.4577   -2.6805    0.0000 H   0  0  0  0  0  0  0  0  0  0  0  0
    6.5051   -3.5560    0.0000 H   0  0  0  0  0  0  0  0  0  0  0  0
    7.3806   -3.5086    0.0000 H   0  0  0  0  0  0  0  0  0  0  0  0
    5.1350   -4.4050    0.0000 H   0  0  0  0  0  0  0  0  0  0  0  0
    6.0010    1.7150    0.0000 H   0  0  0  0  0  0  0  0  0  0  0  0
    5.1350    3.2150    0.0000 H   0  0  0  0  0  0  0  0  0  0  0  0
    3.7320    0.7850    0.0000 H   0  0  0  0  0  0  0  0  0  0  0  0
    2.3291    1.5950    0.0000 H   0  0  0  0  0  0  0  0  0  0  0  0
    2.3291    3.2150    0.0000 H   0  0  0  0  0  0  0  0  0  0  0  0
  1 25  1  0  0  0  0
  2 11  1  0  0  0  0
  2 47  1  0  0  0  0
  9  3  1  1  0  0  0
  3 16  1  0  0  0  0
  3 30  1  0  0  0  0
  4 14  1  0  0  0  0
  4 15  1  0  0  0  0
  4 19  1  0  0  0  0
  5 15  1  0  0  0  0
  5 16  2  0  0  0  0
  6 16  1  0  0  0  0
  6 18  2  0  0  0  0
  7 17  1  0  0  0  0
  7 19  2  0  0  0  0
  8 18  1  0  0  0  0
  8 22  1  0  0  0  0
  8 48  1  0  0  0  0
  9 10  1  0  0  0  0
  9 11  1  0  0  0  0
  9 28  1  0  0  0  0
 10 12  1  0  0  0  0
 10 13  1  0  0  0  0
 10 29  1  0  0  0  0
 11 31  1  0  0  0  0
 11 32  1  0  0  0  0
 12 34  1  0  0  0  0
 12 35  1  0  0  0  0
 12 36  1  0  0  0  0
 13 37  1  0  0  0  0
 13 38  1  0  0  0  0
 13 39  1  0  0  0  0
 14 20  1  0  0  0  0
 14 21  1  0  0  0  0
 14 33  1  0  0  0  0
 15 17  2  0  0  0  0
 17 18  1  0  0  0  0
 19 40  1  0  0  0  0
 20 41  1  0  0  0  0
 20 42  1  0  0  0  0
 20 43  1  0  0  0  0
 21 44  1  0  0  0  0
 21 45  1  0  0  0  0
 21 46  1  0  0  0  0
 22 23  2  0  0  0  0
 22 24  1  0  0  0  0
 23 25  1  0  0  0  0
 23 49  1  0  0  0  0
 24 26  2  0  0  0  0
 24 50  1  0  0  0  0
 25 27  2  0  0  0  0
 26 27  1  0  0  0  0
 26 51  1  0  0  0  0
 27 52  1  0  0  0  0
M  END
> <PUBCHEM_COMPOUND_CID>
456214

> <PUBCHEM_COMPOUND_CANONICALIZED>
1

> <PUBCHEM_CACTVS_COMPLEXITY>
468

> <PUBCHEM_CACTVS_HBOND_ACCEPTOR>
6

> <PUBCHEM_CACTVS_HBOND_DONOR>
3

> <PUBCHEM_CACTVS_ROTATABLE_BOND>
7

> <PUBCHEM_CACTVS_SUBSKEYS>
AAADceB7oAAEAAAAAAAAAAAAAAAAAWAAAAA8QAAAAAAAAFgB/AAAHgIQCAAADSrhlyY38L/MEgCgASZjZACCgC0xF6AJ2KAodpiKeGLB29GUZAhskALYyCcQAAAIAAAAAAIAAAAAAAAABAAAAAAAAAAAAA==

> <PUBCHEM_IUPAC_OPENEYE_NAME>
(2R)-2-[[6-(3-chloroanilino)-9-isopropyl-purin-2-yl]amino]-3-methyl-butan-1-ol

> <PUBCHEM_IUPAC_CAS_NAME>
(2R)-2-[[6-(3-chloroanilino)-9-propan-2-yl-2-purinyl]amino]-3-methyl-1-butanol

> <PUBCHEM_IUPAC_NAME>
(2R)-2-[[6-(3-chloroanilino)-9-propan-2-ylpurin-2-yl]amino]-3-methylbutan-1-ol

> <PUBCHEM_IUPAC_SYSTEMATIC_NAME>
(2R)-2-[[6-[(3-chlorophenyl)amino]-9-propan-2-yl-purin-2-yl]amino]-3-methyl-butan-1-ol

> <PUBCHEM_IUPAC_TRADITIONAL_NAME>
(2R)-2-[[6-(3-chloroanilino)-9-isopropyl-purin-2-yl]amino]-3-methyl-butan-1-ol

> <PUBCHEM_IUPAC_INCHI>
InChI=1S/C19H25ClN6O/c1-11(2)15(9-27)23-19-24-17(22-14-7-5-6-13(20)8-14)16-18(25-19)26(10-21-16)12(3)4/h5-8,10-12,15,27H,9H2,1-4H3,(H2,22,23,24,25)/t15-/m0/s1

> <PUBCHEM_IUPAC_INCHIKEY>
PMXCMJLOPOFPBT-HNNXBMFYSA-N

> <PUBCHEM_XLOGP3_AA>
4.3

> <PUBCHEM_EXACT_MASS>
388.178

> <PUBCHEM_MOLECULAR_FORMULA>
C19H25ClN6O

> <PUBCHEM_MOLECULAR_WEIGHT>
388.9

> <PUBCHEM_OPENEYE_CAN_SMILES>
CC(C)C(CO)NC1=NC2=C(C(=N1)NC3=CC(=CC=C3)Cl)N=CN2C(C)C

> <PUBCHEM_OPENEYE_ISO_SMILES>
CC(C)[C@H](CO)NC1=NC2=C(C(=N1)NC3=CC(=CC=C3)Cl)N=CN2C(C)C

> <PUBCHEM_CACTVS_TPSA>
87.9

> <PUBCHEM_MONOISOTOPIC_WEIGHT>
388.178

> <PUBCHEM_TOTAL_CHARGE>
0

> <PUBCHEM_HEAVY_ATOM_COUNT>
27

> <PUBCHEM_ATOM_DEF_STEREO_COUNT>
1

> <PUBCHEM_ATOM_UDEF_STEREO_COUNT>
0

> <PUBCHEM_BOND_DEF_STEREO_COUNT>
0

> <PUBCHEM_BOND_UDEF_STEREO_COUNT>
0

> <PUBCHEM_ISOTOPIC_ATOM_COUNT>
0

> <PUBCHEM_COMPONENT_COUNT>
1

> <PUBCHEM_CACTVS_TAUTO_COUNT>
9

> <PUBCHEM_COORDINATE_TYPE>
1
5
255

> <PUBCHEM_BONDANNOTATIONS>
15  17  8
17  18  8
22  23  8
22  24  8
23  25  8
24  26  8
25  27  8
26  27  8
9  3  5
4  15  8
4  19  8
5  15  8
5  16  8
6  16  8
6  18  8
7  17  8
7  19  8

$$$$
10521421
  -OEChem-11021605012D

 49 51  0     0  0  0  0  0  0999 V2000
    8.1962   -1.7085    0.0000 Cl  0  0  0  0  0  0  0  0  0  0  0  0
    4.6660   -3.7327    0.0000 O   0  0  0  0  0  0  0  0  0  0  0  0
    4.6660   -1.7327    0.0000 N   0  0  0  0  0  0  0  0  0  0  0  0
    2.9340    2.2673    0.0000 N   0  0  0  0  0  0  0  0  0  0  0  0
    3.8000   -0.2327    0.0000 C   0  0  0  0  0  0  0  0  0  0  0  0
    3.8000    0.7673    0.0000 C   0  0  0  0  0  0  0  0  0  0  0  0
    4.6660   -0.7327    0.0000 C   0  0  0  0  0  0  0  0  0  0  0  0
    2.9340    1.2673    0.0000 C   0  0  0  0  0  0  0  0  0  0  0  0
    5.5321   -2.2327    0.0000 C   0  0  0  0  0  0  0  0  0  0  0  0
    3.8000   -2.2327    0.0000 C   0  0  0  0  0  0  0  0  0  0  0  0
    2.0680    2.7673    0.0000 C   0  0  0  0  0  0  0  0  0  0  0  0
    3.8000    2.7673    0.0000 C   0  0  0  0  0  0  0  0  0  0  0  0
    5.5321   -3.2327    0.0000 C   0  0  0  0  0  0  0  0  0  0  0  0
    3.8000   -3.2327    0.0000 C   0  0  0  0  0  0  0  0  0  0  0  0
    6.4260   -1.6980    0.0000 C   0  0  0  0  0  0  0  0  0  0  0  0
    2.9061   -1.6980    0.0000 C   0  0  0  0  0  0  0  0  0  0  0  0
    2.0680    3.7673    0.0000 C   0  0  0  0  0  0  0  0  0  0  0  0
    3.8000    3.7673    0.0000 C   0  0  0  0  0  0  0  0  0  0  0  0
    6.4260   -3.7673    0.0000 C   0  0  0  0  0  0  0  0  0  0  0  0
    2.9061   -3.7673    0.0000 C   0  0  0  0  0  0  0  0  0  0  0  0
    7.3321   -2.2118    0.0000 C   0  0  0  0  0  0  0  0  0  0  0  0
    2.0000   -2.2118    0.0000 C   0  0  0  0  0  0  0  0  0  0  0  0
    7.3321   -3.2535    0.0000 C   0  0  0  0  0  0  0  0  0  0  0  0
    2.0000   -3.2535    0.0000 C   0  0  0  0  0  0  0  0  0  0  0  0
    3.1894   -0.1250    0.0000 H   0  0  0  0  0  0  0  0  0  0  0  0
    3.5880   -0.8153    0.0000 H   0  0  0  0  0  0  0  0  0  0  0  0
    4.4106    0.6597    0.0000 H   0  0  0  0  0  0  0  0  0  0  0  0
    4.0121    1.3499    0.0000 H   0  0  0  0  0  0  0  0  0  0  0  0
    5.2766   -0.8403    0.0000 H   0  0  0  0  0  0  0  0  0  0  0  0
    4.8781   -0.1501    0.0000 H   0  0  0  0  0  0  0  0  0  0  0  0
    2.3234    1.3750    0.0000 H   0  0  0  0  0  0  0  0  0  0  0  0
    2.7219    0.6847    0.0000 H   0  0  0  0  0  0  0  0  0  0  0  0
    1.4574    2.8750    0.0000 H   0  0  0  0  0  0  0  0  0  0  0  0
    1.8559    2.1847    0.0000 H   0  0  0  0  0  0  0  0  0  0  0  0
    4.0121    2.1847    0.0000 H   0  0  0  0  0  0  0  0  0  0  0  0
    4.4106    2.8750    0.0000 H   0  0  0  0  0  0  0  0  0  0  0  0
    6.4188   -1.0780    0.0000 H   0  0  0  0  0  0  0  0  0  0  0  0
    2.9132   -1.0780    0.0000 H   0  0  0  0  0  0  0  0  0  0  0  0
    4.4200    3.7673    0.0000 H   0  0  0  0  0  0  0  0  0  0  0  0
    3.8000    4.3873    0.0000 H   0  0  0  0  0  0  0  0  0  0  0  0
    2.6880    3.7673    0.0000 H   0  0  0  0  0  0  0  0  0  0  0  0
    2.0680    4.3873    0.0000 H   0  0  0  0  0  0  0  0  0  0  0  0
    1.4480    3.7673    0.0000 H   0  0  0  0  0  0  0  0  0  0  0  0
    3.1800    3.7673    0.0000 H   0  0  0  0  0  0  0  0  0  0  0  0
    6.4188   -4.3873    0.0000 H   0  0  0  0  0  0  0  0  0  0  0  0
    2.9132   -4.3873    0.0000 H   0  0  0  0  0  0  0  0  0  0  0  0
    1.4643   -1.8998    0.0000 H   0  0  0  0  0  0  0  0  0  0  0  0
    7.8678   -3.5656    0.0000 H   0  0  0  0  0  0  0  0  0  0  0  0
    1.4643   -3.5656    0.0000 H   0  0  0  0  0  0  0  0  0  0  0  0
  1 21  1  0  0  0  0
  2 13  1  0  0  0  0
  2 14  1  0  0  0  0
  3  7  1  0  0  0  0
  3  9  1  0  0  0  0
  3 10  1  0  0  0  0
  4  8  1  0  0  0  0
  4 11  1  0  0  0  0
  4 12  1  0  0  0  0
  5  6  1  0  0  0  0
  5  7  1  0  0  0  0
  5 25  1  0  0  0  0
  5 26  1  0  0  0  0
  6  8  1  0  0  0  0
  6 27  1  0  0  0  0
  6 28  1  0  0  0  0
  7 29  1  0  0  0  0
  7 30  1  0  0  0  0
  8 31  1  0  0  0  0
  8 32  1  0  0  0  0
  9 13  2  0  0  0  0
  9 15  1  0  0  0  0
 10 14  1  0  0  0  0
 10 16  2  0  0  0  0
 11 17  1  0  0  0  0
 11 33  1  0  0  0  0
 11 34  1  0  0  0  0
 12 18  1  0  0  0  0
 12 35  1  0  0  0  0
 12 36  1  0  0  0  0
 13 19  1  0  0  0  0
 14 20  2  0  0  0  0
 15 21  2  0  0  0  0
 15 37  1  0  0  0  0
 16 22  1  0  0  0  0
 16 38  1  0  0  0  0
 17 41  1  0  0  0  0
 17 42  1  0  0  0  0
 17 43  1  0  0  0  0
 18 39  1  0  0  0  0
 18 40  1  0  0  0  0
 18 44  1  0  0  0  0
 19 23  2  0  0  0  0
 19 45  1  0  0  0  0
 20 24  1  0  0  0  0
 20 46  1  0  0  0  0
 21 23  1  0  0  0  0
 22 24  2  0  0  0  0
 22 47  1  0  0  0  0
 23 48  1  0  0  0  0
 24 49  1  0  0  0  0
M  END
> <PUBCHEM_COMPOUND_CID>
10521421

> <PUBCHEM_COMPOUND_CANONICALIZED>
1

> <PUBCHEM_CACTVS_COMPLEXITY>
377

> <PUBCHEM_CACTVS_HBOND_ACCEPTOR>
3

> <PUBCHEM_CACTVS_HBOND_DONOR>
0

> <PUBCHEM_CACTVS_ROTATABLE_BOND>
7

> <PUBCHEM_CACTVS_SUBSKEYS>
AAADceB7IAAEAAAAAAAAAAAAAAAAAAAAAAA8YIAAAAAAAACxQAAAHgIAAAAACA7BkCQyxoMABACAACRCQACCCAAhJwAIiAAPbogOJmLFs5uHOCjkwBHY6AeQQAAAACAAAAIAEAAAQAAABAAgAAAAAAAAAA==

> <PUBCHEM_IUPAC_OPENEYE_NAME>
4-(2-chlorophenoxazin-10-yl)-N,N-diethyl-butan-1-amine

> <PUBCHEM_IUPAC_CAS_NAME>
4-(2-chloro-10-phenoxazinyl)-N,N-diethyl-1-butanamine

> <PUBCHEM_IUPAC_NAME>
4-(2-chlorophenoxazin-10-yl)-N,N-diethylbutan-1-amine

> <PUBCHEM_IUPAC_SYSTEMATIC_NAME>
4-(2-chloranylphenoxazin-10-yl)-N,N-diethyl-butan-1-amine

> <PUBCHEM_IUPAC_TRADITIONAL_NAME>
4-(2-chlorophenoxazin-10-yl)butyl-diethyl-amine

> <PUBCHEM_IUPAC_INCHI>
InChI=1S/C20H25ClN2O/c1-3-22(4-2)13-7-8-14-23-17-9-5-6-10-19(17)24-20-12-11-16(21)15-18(20)23/h5-6,9-12,15H,3-4,7-8,13-14H2,1-2H3

> <PUBCHEM_IUPAC_INCHIKEY>
GYBXAGDWMCJZJK-UHFFFAOYSA-N

> <PUBCHEM_XLOGP3_AA>
5.3

> <PUBCHEM_EXACT_MASS>
344.166

> <PUBCHEM_MOLECULAR_FORMULA>
C20H25ClN2O

> <PUBCHEM_MOLECULAR_WEIGHT>
344.883

> <PUBCHEM_OPENEYE_CAN_SMILES>
CCN(CC)CCCCN1C2=CC=CC=C2OC3=C1C=C(C=C3)Cl

> <PUBCHEM_OPENEYE_ISO_SMILES>
CCN(CC)CCCCN1C2=CC=CC=C2OC3=C1C=C(C=C3)Cl

> <PUBCHEM_CACTVS_TPSA>
15.7

> <PUBCHEM_MONOISOTOPIC_WEIGHT>
344.166

> <PUBCHEM_TOTAL_CHARGE>
0

> <PUBCHEM_HEAVY_ATOM_COUNT>
24

> <PUBCHEM_ATOM_DEF_STEREO_COUNT>
0

> <PUBCHEM_ATOM_UDEF_STEREO_COUNT>
0

> <PUBCHEM_BOND_DEF_STEREO_COUNT>
0

> <PUBCHEM_BOND_UDEF_STEREO_COUNT>
0

> <PUBCHEM_ISOTOPIC_ATOM_COUNT>
0

> <PUBCHEM_COMPONENT_COUNT>
1

> <PUBCHEM_CACTVS_TAUTO_COUNT>
1

> <PUBCHEM_COORDINATE_TYPE>
1
5
255

> <PUBCHEM_BONDANNOTATIONS>
10  14  8
10  16  8
13  19  8
14  20  8
15  21  8
16  22  8
19  23  8
20  24  8
21  23  8
22  24  8
9  13  8
9  15  8

$$$$
3387354
  -OEChem-11021605012D

 45 52  0     1  0  0  0  0  0999 V2000
    7.7141    2.8707    0.0000 O   0  0  0  0  0  0  0  0  0  0  0  0
    3.7888   -3.1081    0.0000 O   0  0  0  0  0  0  0  0  0  0  0  0
    2.0000   -0.0099    0.0000 O   0  0  0  0  0  0  0  0  0  0  0  0
    5.8258    1.2882    0.0000 N   0  0  0  0  0  0  0  0  0  0  0  0
    6.8258   -0.4438    0.0000 N   0  0  0  0  0  0  0  0  0  0  0  0
    2.6370   -1.7076    0.0000 N   0  0  0  0  0  0  0  0  0  0  0  0
    8.4507    1.8881    0.0000 C   0  0  3  0  0  0  0  0  0  0  0  0
    8.1919    0.9222    0.0000 C   0  0  3  0  0  0  0  0  0  0  0  0
    5.3258    0.4222    0.0000 C   0  0  0  0  0  0  0  0  0  0  0  0
    5.8258   -0.4438    0.0000 C   0  0  0  0  0  0  0  0  0  0  0  0
   10.0238    0.1634    0.0000 C   0  0  0  0  0  0  0  0  0  0  0  0
   10.2826    1.1293    0.0000 C   0  0  0  0  0  0  0  0  0  0  0  0
    4.2843    0.4382    0.0000 C   0  0  0  0  0  0  0  0  0  0  0  0
    5.3190   -1.3538    0.0000 C   0  0  0  0  0  0  0  0  0  0  0  0
    6.9718   -1.4269    0.0000 C   0  0  0  0  0  0  0  0  0  0  0  0
    5.0475    1.9061    0.0000 C   0  0  0  0  0  0  0  0  0  0  0  0
    4.1772    1.4263    0.0000 C   0  0  0  0  0  0  0  0  0  0  0  0
    6.1211   -1.9406    0.0000 C   0  0  0  0  0  0  0  0  0  0  0  0
    4.2774   -1.3619    0.0000 C   0  0  0  0  0  0  0  0  0  0  0  0
    3.7566   -0.4598    0.0000 C   0  0  0  0  0  0  0  0  0  0  0  0
    5.0838    2.9407    0.0000 C   0  0  0  0  0  0  0  0  0  0  0  0
    7.8859   -1.9127    0.0000 C   0  0  0  0  0  0  0  0  0  0  0  0
    2.7443   -0.6777    0.0000 C   0  0  0  0  0  0  0  0  0  0  0  0
    3.5825   -2.1296    0.0000 C   0  0  0  0  0  0  0  0  0  0  0  0
    3.2829    1.9477    0.0000 C   0  0  0  0  0  0  0  0  0  0  0  0
    6.1255   -2.9758    0.0000 C   0  0  0  0  0  0  0  0  0  0  0  0
    4.2018    3.4826    0.0000 C   0  0  0  0  0  0  0  0  0  0  0  0
    7.9143   -2.9475    0.0000 C   0  0  0  0  0  0  0  0  0  0  0  0
    3.2953    2.9828    0.0000 C   0  0  0  0  0  0  0  0  0  0  0  0
    7.0281   -3.4826    0.0000 C   0  0  0  0  0  0  0  0  0  0  0  0
    8.6623    1.3260    0.0000 H   0  0  0  0  0  0  0  0  0  0  0  0
    8.8309    2.3779    0.0000 H   0  0  0  0  0  0  0  0  0  0  0  0
    9.8118   -0.4192    0.0000 H   0  0  0  0  0  0  0  0  0  0  0  0
   10.6151   -0.0231    0.0000 H   0  0  0  0  0  0  0  0  0  0  0  0
   10.8739    0.9428    0.0000 H   0  0  0  0  0  0  0  0  0  0  0  0
   10.4947    1.7119    0.0000 H   0  0  0  0  0  0  0  0  0  0  0  0
    8.4129   -1.5861    0.0000 H   0  0  0  0  0  0  0  0  0  0  0  0
    5.6302    3.2338    0.0000 H   0  0  0  0  0  0  0  0  0  0  0  0
    5.5911   -3.2902    0.0000 H   0  0  0  0  0  0  0  0  0  0  0  0
    2.7435    1.6421    0.0000 H   0  0  0  0  0  0  0  0  0  0  0  0
    2.1000   -2.0176    0.0000 H   0  0  0  0  0  0  0  0  0  0  0  0
    8.4584   -3.2448    0.0000 H   0  0  0  0  0  0  0  0  0  0  0  0
    4.2164    4.1025    0.0000 H   0  0  0  0  0  0  0  0  0  0  0  0
    2.7634    3.3013    0.0000 H   0  0  0  0  0  0  0  0  0  0  0  0
    7.0380   -4.1026    0.0000 H   0  0  0  0  0  0  0  0  0  0  0  0
  1  7  1  0  0  0  0
  1  8  1  0  0  0  0
  2 24  2  0  0  0  0
  3 23  2  0  0  0  0
  4  7  1  0  0  0  0
  4  9  1  0  0  0  0
  4 16  1  0  0  0  0
  5  8  1  0  0  0  0
  5 10  1  0  0  0  0
  5 15  1  0  0  0  0
  6 23  1  0  0  0  0
  6 24  1  0  0  0  0
  6 41  1  0  0  0  0
  7 12  1  0  0  0  0
  7 32  1  0  0  0  0
  8 11  1  0  0  0  0
  8 31  1  0  0  0  0
  9 10  2  0  0  0  0
  9 13  1  0  0  0  0
 10 14  1  0  0  0  0
 11 12  1  0  0  0  0
 11 33  1  0  0  0  0
 11 34  1  0  0  0  0
 12 35  1  0  0  0  0
 12 36  1  0  0  0  0
 13 17  1  0  0  0  0
 13 20  2  0  0  0  0
 14 18  1  0  0  0  0
 14 19  2  0  0  0  0
 15 18  1  0  0  0  0
 15 22  2  0  0  0  0
 16 17  1  0  0  0  0
 16 21  2  0  0  0  0
 17 25  2  0  0  0  0
 18 26  2  0  0  0  0
 19 20  1  0  0  0  0
 19 24  1  0  0  0  0
 20 23  1  0  0  0  0
 21 27  1  0  0  0  0
 21 38  1  0  0  0  0
 22 28  1  0  0  0  0
 22 37  1  0  0  0  0
 25 29  1  0  0  0  0
 25 40  1  0  0  0  0
 26 30  1  0  0  0  0
 26 39  1  0  0  0  0
 27 29  2  0  0  0  0
 27 43  1  0  0  0  0
 28 30  2  0  0  0  0
 28 42  1  0  0  0  0
 29 44  1  0  0  0  0
 30 45  1  0  0  0  0
M  END
> <PUBCHEM_COMPOUND_CID>
3387354

> <PUBCHEM_COMPOUND_CANONICALIZED>
1

> <PUBCHEM_CACTVS_COMPLEXITY>
754

> <PUBCHEM_CACTVS_HBOND_ACCEPTOR>
3

> <PUBCHEM_CACTVS_HBOND_DONOR>
1

> <PUBCHEM_CACTVS_ROTATABLE_BOND>
0

> <PUBCHEM_CACTVS_SUBSKEYS>
AAADccB7MAAAAAAAAAAAAAAAAAAAAWLFiQAwYMAABYAWAFix/gAAHgAQAAAADAjhngYwwPPMFACoAyVyVACCgCQlEiAI2CE4dNgIYPLAlZGeIQhkhCDIyQc9icCeyAACQAASACCQAASAACQAQAAAAAAAAA==

> <PUBCHEM_IUPAC_INCHI>
InChI=1S/C24H15N3O3/c28-23-19-17-11-5-1-3-7-13(11)26-15-9-10-16(30-15)27-14-8-4-2-6-12(14)18(22(27)21(17)26)20(19)24(29)25-23/h1-8,15-16H,9-10H2,(H,25,28,29)

> <PUBCHEM_IUPAC_INCHIKEY>
OTPNDVKVEAIXTI-UHFFFAOYSA-N

> <PUBCHEM_XLOGP3_AA>
3.8

> <PUBCHEM_EXACT_MASS>
393.111

> <PUBCHEM_MOLECULAR_FORMULA>
C24H15N3O3

> <PUBCHEM_MOLECULAR_WEIGHT>
393.402

> <PUBCHEM_OPENEYE_CAN_SMILES>
C1CC2N3C4=CC=CC=C4C5=C6C(=C7C8=CC=CC=C8N(C1O2)C7=C53)C(=O)NC6=O

> <PUBCHEM_OPENEYE_ISO_SMILES>
C1CC2N3C4=CC=CC=C4C5=C6C(=C7C8=CC=CC=C8N(C1O2)C7=C53)C(=O)NC6=O

> <PUBCHEM_CACTVS_TPSA>
65.3

> <PUBCHEM_MONOISOTOPIC_WEIGHT>
393.111

> <PUBCHEM_TOTAL_CHARGE>
0

> <PUBCHEM_HEAVY_ATOM_COUNT>
30

> <PUBCHEM_ATOM_DEF_STEREO_COUNT>
0

> <PUBCHEM_ATOM_UDEF_STEREO_COUNT>
2

> <PUBCHEM_BOND_DEF_STEREO_COUNT>
0

> <PUBCHEM_BOND_UDEF_STEREO_COUNT>
0

> <PUBCHEM_ISOTOPIC_ATOM_COUNT>
0

> <PUBCHEM_COMPONENT_COUNT>
1

> <PUBCHEM_CACTVS_TAUTO_COUNT>
2

> <PUBCHEM_COORDINATE_TYPE>
1
5
255

> <PUBCHEM_BONDANNOTATIONS>
10  14  8
13  17  8
13  20  8
14  18  8
14  19  8
15  18  8
15  22  8
16  17  8
16  21  8
17  25  8
18  26  8
19  20  8
21  27  8
22  28  8
25  29  8
26  30  8
27  29  8
28  30  8
4  16  8
4  9  8
5  10  8
5  15  8
7  12  3
8  11  3
9  10  8
9  13  8

$$$$
11493598
  -OEChem-11021605012D

 38 42  0     0  0  0  0  0  0999 V2000
    3.2892   -0.3123    0.0000 N   0  0  0  0  0  0  0  0  0  0  0  0
    3.7899    0.5465    0.0000 N   0  0  0  0  0  0  0  0  0  0  0  0
    5.7308   -2.1515    0.0000 N   0  0  0  0  0  0  0  0  0  0  0  0
    8.9927   -1.6515    0.0000 N   0  0  0  0  0  0  0  0  0  0  0  0
    6.5968   -2.6515    0.0000 N   0  0  0  0  0  0  0  0  0  0  0  0
    8.4091   -2.4562    0.0000 N   0  0  0  0  0  0  0  0  0  0  0  0
    8.7198    0.1038    0.0000 N   0  0  0  0  0  0  0  0  0  0  0  0
    4.8648   -0.6515    0.0000 C   0  0  0  0  0  0  0  0  0  0  0  0
    3.9570   -1.0566    0.0000 C   0  0  0  0  0  0  0  0  0  0  0  0
    4.7617    0.3373    0.0000 C   0  0  0  0  0  0  0  0  0  0  0  0
    5.7308   -1.1515    0.0000 C   0  0  0  0  0  0  0  0  0  0  0  0
    5.5060    1.0051    0.0000 C   0  0  0  0  0  0  0  0  0  0  0  0
    3.6464   -2.0071    0.0000 C   0  0  0  0  0  0  0  0  0  0  0  0
    6.5968   -0.6515    0.0000 C   0  0  0  0  0  0  0  0  0  0  0  0
    7.4629   -1.1515    0.0000 C   0  0  0  0  0  0  0  0  0  0  0  0
    2.3107   -0.5185    0.0000 C   0  0  0  0  0  0  0  0  0  0  0  0
    7.4629   -2.1515    0.0000 C   0  0  0  0  0  0  0  0  0  0  0  0
    2.6678   -2.2133    0.0000 C   0  0  0  0  0  0  0  0  0  0  0  0
    8.4091   -0.8467    0.0000 C   0  0  0  0  0  0  0  0  0  0  0  0
    2.0000   -1.4690    0.0000 C   0  0  0  0  0  0  0  0  0  0  0  0
    6.4566    0.6944    0.0000 C   0  0  0  0  0  0  0  0  0  0  0  0
    5.2998    1.9836    0.0000 C   0  0  0  0  0  0  0  0  0  0  0  0
    7.2009    1.3623    0.0000 C   0  0  0  0  0  0  0  0  0  0  0  0
    6.0441    2.6515    0.0000 C   0  0  0  0  0  0  0  0  0  0  0  0
    6.9946    2.3408    0.0000 C   0  0  0  0  0  0  0  0  0  0  0  0
    6.5968   -0.0315    0.0000 H   0  0  0  0  0  0  0  0  0  0  0  0
    4.0604   -2.4686    0.0000 H   0  0  0  0  0  0  0  0  0  0  0  0
    1.8966   -0.0570    0.0000 H   0  0  0  0  0  0  0  0  0  0  0  0
    2.4752   -2.8026    0.0000 H   0  0  0  0  0  0  0  0  0  0  0  0
    1.3933   -1.5969    0.0000 H   0  0  0  0  0  0  0  0  0  0  0  0
    6.5844    0.0878    0.0000 H   0  0  0  0  0  0  0  0  0  0  0  0
    4.7105    2.1762    0.0000 H   0  0  0  0  0  0  0  0  0  0  0  0
    9.6127   -1.6515    0.0000 H   0  0  0  0  0  0  0  0  0  0  0  0
    7.7902    1.1697    0.0000 H   0  0  0  0  0  0  0  0  0  0  0  0
    5.9163    3.2581    0.0000 H   0  0  0  0  0  0  0  0  0  0  0  0
    7.4561    2.7549    0.0000 H   0  0  0  0  0  0  0  0  0  0  0  0
    9.3264    0.2316    0.0000 H   0  0  0  0  0  0  0  0  0  0  0  0
    8.3057    0.5653    0.0000 H   0  0  0  0  0  0  0  0  0  0  0  0
  1  2  1  0  0  0  0
  1  9  1  0  0  0  0
  1 16  1  0  0  0  0
  2 10  2  0  0  0  0
  3  5  2  0  0  0  0
  3 11  1  0  0  0  0
  4  6  1  0  0  0  0
  4 19  1  0  0  0  0
  4 33  1  0  0  0  0
  5 17  1  0  0  0  0
  6 17  2  0  0  0  0
  7 19  1  0  0  0  0
  7 37  1  0  0  0  0
  7 38  1  0  0  0  0
  8  9  2  0  0  0  0
  8 10  1  0  0  0  0
  8 11  1  0  0  0  0
  9 13  1  0  0  0  0
 10 12  1  0  0  0  0
 11 14  2  0  0  0  0
 12 21  2  0  0  0  0
 12 22  1  0  0  0  0
 13 18  2  0  0  0  0
 13 27  1  0  0  0  0
 14 15  1  0  0  0  0
 14 26  1  0  0  0  0
 15 17  1  0  0  0  0
 15 19  2  0  0  0  0
 16 20  2  0  0  0  0
 16 28  1  0  0  0  0
 18 20  1  0  0  0  0
 18 29  1  0  0  0  0
 20 30  1  0  0  0  0
 21 23  1  0  0  0  0
 21 31  1  0  0  0  0
 22 24  2  0  0  0  0
 22 32  1  0  0  0  0
 23 25  2  0  0  0  0
 23 34  1  0  0  0  0
 24 25  1  0  0  0  0
 24 35  1  0  0  0  0
 25 36  1  0  0  0  0
M  END
> <PUBCHEM_COMPOUND_CID>
11493598

> <PUBCHEM_COMPOUND_CANONICALIZED>
1

> <PUBCHEM_CACTVS_COMPLEXITY>
468

> <PUBCHEM_CACTVS_HBOND_ACCEPTOR>
5

> <PUBCHEM_CACTVS_HBOND_DONOR>
2

> <PUBCHEM_CACTVS_ROTATABLE_BOND>
2

> <PUBCHEM_CACTVS_SUBSKEYS>
AAADccB7gAAAAAAAAAAAAAAAAAAAAWLAAAA8WIAAAAAAAFgB/gAAHAAYAAAADAjBHwQ98P5rEACiAzZnZACShCKxgiAc+SA4ZJgIIOLA0dGEpAhwiADIyAcQgMAOAAAAAAAAAAAAAAAAAAAAAAAAAAAAAA==

> <PUBCHEM_IUPAC_OPENEYE_NAME>
5-(2-phenylpyrazolo[1,5-a]pyridin-3-yl)-2H-pyrazolo[3,4-c]pyridazin-3-amine

> <PUBCHEM_IUPAC_CAS_NAME>
5-(2-phenyl-3-pyrazolo[1,5-a]pyridinyl)-2H-pyrazolo[3,4-c]pyridazin-3-amine

> <PUBCHEM_IUPAC_NAME>
5-(2-phenylpyrazolo[1,5-a]pyridin-3-yl)-2H-pyrazolo[3,4-c]pyridazin-3-amine

> <PUBCHEM_IUPAC_SYSTEMATIC_NAME>
5-(2-phenylpyrazolo[1,5-a]pyridin-3-yl)-2H-pyrazolo[3,4-c]pyridazin-3-amine

> <PUBCHEM_IUPAC_TRADITIONAL_NAME>
[5-(2-phenylpyrazolo[1,5-a]pyridin-3-yl)-2H-pyrazolo[3,4-c]pyridazin-3-yl]amine

> <PUBCHEM_IUPAC_INCHI>
InChI=1S/C18H13N7/c19-17-12-10-13(20-22-18(12)23-21-17)15-14-8-4-5-9-25(14)24-16(15)11-6-2-1-3-7-11/h1-10H,(H3,19,21,22,23)

> <PUBCHEM_IUPAC_INCHIKEY>
XVECMUKVOMUNLE-UHFFFAOYSA-N

> <PUBCHEM_XLOGP3_AA>
1.9

> <PUBCHEM_EXACT_MASS>
327.123

> <PUBCHEM_MOLECULAR_FORMULA>
C18H13N7

> <PUBCHEM_MOLECULAR_WEIGHT>
327.351

> <PUBCHEM_OPENEYE_CAN_SMILES>
C1=CC=C(C=C1)C2=NN3C=CC=CC3=C2C4=CC5=C(NN=C5N=N4)N

> <PUBCHEM_OPENEYE_ISO_SMILES>
C1=CC=C(C=C1)C2=NN3C=CC=CC3=C2C4=CC5=C(NN=C5N=N4)N

> <PUBCHEM_CACTVS_TPSA>
97.8

> <PUBCHEM_MONOISOTOPIC_WEIGHT>
327.123

> <PUBCHEM_TOTAL_CHARGE>
0

> <PUBCHEM_HEAVY_ATOM_COUNT>
25

> <PUBCHEM_ATOM_DEF_STEREO_COUNT>
0

> <PUBCHEM_ATOM_UDEF_STEREO_COUNT>
0

> <PUBCHEM_BOND_DEF_STEREO_COUNT>
0

> <PUBCHEM_BOND_UDEF_STEREO_COUNT>
0

> <PUBCHEM_ISOTOPIC_ATOM_COUNT>
0

> <PUBCHEM_COMPONENT_COUNT>
1

> <PUBCHEM_CACTVS_TAUTO_COUNT>
10

> <PUBCHEM_COORDINATE_TYPE>
1
5
255

> <PUBCHEM_BONDANNOTATIONS>
1  16  8
1  2  8
1  9  8
11  14  8
12  21  8
12  22  8
13  18  8
14  15  8
15  17  8
15  19  8
16  20  8
18  20  8
2  10  8
21  23  8
22  24  8
23  25  8
24  25  8
3  11  8
3  5  8
4  19  8
4  6  8
5  17  8
6  17  8
8  10  8
8  9  8
9  13  8

$$$$
644354
  -OEChem-11021605012D

 25 27  0     0  0  0  0  0  0999 V2000
    4.6783   -1.9358    0.0000 N   0  0  0  0  0  0  0  0  0  0  0  0
    5.6103    2.5252    0.0000 N   0  0  0  0  0  0  0  0  0  0  0  0
    3.7320   -0.6311    0.0000 C   0  0  0  0  0  0  0  0  0  0  0  0
    4.6783   -0.3264    0.0000 C   0  0  0  0  0  0  0  0  0  0  0  0
    3.7320   -1.6311    0.0000 C   0  0  0  0  0  0  0  0  0  0  0  0
    5.2619   -1.1311    0.0000 C   0  0  0  0  0  0  0  0  0  0  0  0
    4.9889    0.6241    0.0000 C   0  0  0  0  0  0  0  0  0  0  0  0
    2.8660   -0.1311    0.0000 C   0  0  0  0  0  0  0  0  0  0  0  0
    2.8660   -2.1311    0.0000 C   0  0  0  0  0  0  0  0  0  0  0  0
    2.0000   -0.6311    0.0000 C   0  0  0  0  0  0  0  0  0  0  0  0
    2.0000   -1.6311    0.0000 C   0  0  0  0  0  0  0  0  0  0  0  0
    4.3211    1.3684    0.0000 C   0  0  0  0  0  0  0  0  0  0  0  0
    5.9674    0.8304    0.0000 C   0  0  0  0  0  0  0  0  0  0  0  0
    4.6318    2.3190    0.0000 C   0  0  0  0  0  0  0  0  0  0  0  0
    6.2781    1.7809    0.0000 C   0  0  0  0  0  0  0  0  0  0  0  0
    5.8819   -1.1311    0.0000 H   0  0  0  0  0  0  0  0  0  0  0  0
    4.8709   -2.5252    0.0000 H   0  0  0  0  0  0  0  0  0  0  0  0
    2.8660    0.4889    0.0000 H   0  0  0  0  0  0  0  0  0  0  0  0
    2.8660   -2.7511    0.0000 H   0  0  0  0  0  0  0  0  0  0  0  0
    1.4631   -0.3211    0.0000 H   0  0  0  0  0  0  0  0  0  0  0  0
    1.4631   -1.9411    0.0000 H   0  0  0  0  0  0  0  0  0  0  0  0
    3.7144    1.2406    0.0000 H   0  0  0  0  0  0  0  0  0  0  0  0
    6.3815    0.3689    0.0000 H   0  0  0  0  0  0  0  0  0  0  0  0
    4.2177    2.7804    0.0000 H   0  0  0  0  0  0  0  0  0  0  0  0
    6.8848    1.9087    0.0000 H   0  0  0  0  0  0  0  0  0  0  0  0
  1  5  1  0  0  0  0
  1  6  1  0  0  0  0
  1 17  1  0  0  0  0
  2 14  2  0  0  0  0
  2 15  1  0  0  0  0
  3  4  1  0  0  0  0
  3  5  1  0  0  0  0
  3  8  2  0  0  0  0
  4  6  2  0  0  0  0
  4  7  1  0  0  0  0
  5  9  2  0  0  0  0
  6 16  1  0  0  0  0
  7 12  2  0  0  0  0
  7 13  1  0  0  0  0
  8 10  1  0  0  0  0
  8 18  1  0  0  0  0
  9 11  1  0  0  0  0
  9 19  1  0  0  0  0
 10 11  2  0  0  0  0
 10 20  1  0  0  0  0
 11 21  1  0  0  0  0
 12 14  1  0  0  0  0
 12 22  1  0  0  0  0
 13 15  2  0  0  0  0
 13 23  1  0  0  0  0
 14 24  1  0  0  0  0
 15 25  1  0  0  0  0
M  END
> <PUBCHEM_COMPOUND_CID>
644354

> <PUBCHEM_COMPOUND_CANONICALIZED>
1

> <PUBCHEM_CACTVS_COMPLEXITY>
211

> <PUBCHEM_CACTVS_HBOND_ACCEPTOR>
1

> <PUBCHEM_CACTVS_HBOND_DONOR>
1

> <PUBCHEM_CACTVS_ROTATABLE_BOND>
1

> <PUBCHEM_CACTVS_SUBSKEYS>
AAADccBzAAAAAAAAAAAAAAAAAAAAAWAAAAA8QAAAAAAAAFgB/AAAHAAQAAAADAjBHgQ8wPLJkACgAzRnRACCgCAxAiAI2aA4ZJgIIOLAkZGEIAhgkADIyAcQgMAOgAAAAAACAAAAAAAAAAQAAAAAAAAAAA==

> <PUBCHEM_IUPAC_OPENEYE_NAME>
3-(4-pyridyl)-1H-indole

> <PUBCHEM_IUPAC_CAS_NAME>
3-pyridin-4-yl-1H-indole

> <PUBCHEM_IUPAC_NAME>
3-pyridin-4-yl-1H-indole

> <PUBCHEM_IUPAC_SYSTEMATIC_NAME>
3-pyridin-4-yl-1H-indole

> <PUBCHEM_IUPAC_TRADITIONAL_NAME>
3-(4-pyridyl)-1H-indole

> <PUBCHEM_IUPAC_INCHI>
InChI=1S/C13H10N2/c1-2-4-13-11(3-1)12(9-15-13)10-5-7-14-8-6-10/h1-9,15H

> <PUBCHEM_IUPAC_INCHIKEY>
LLJRXVHJOJRCSM-UHFFFAOYSA-N

> <PUBCHEM_XLOGP3>
2.8

> <PUBCHEM_EXACT_MASS>
194.084

> <PUBCHEM_MOLECULAR_FORMULA>
C13H10N2

> <PUBCHEM_MOLECULAR_WEIGHT>
194.237

> <PUBCHEM_OPENEYE_CAN_SMILES>
C1=CC=C2C(=C1)C(=CN2)C3=CC=NC=C3

> <PUBCHEM_OPENEYE_ISO_SMILES>
C1=CC=C2C(=C1)C(=CN2)C3=CC=NC=C3

> <PUBCHEM_CACTVS_TPSA>
28.7

> <PUBCHEM_MONOISOTOPIC_WEIGHT>
194.084

> <PUBCHEM_TOTAL_CHARGE>
0

> <PUBCHEM_HEAVY_ATOM_COUNT>
15

> <PUBCHEM_ATOM_DEF_STEREO_COUNT>
0

> <PUBCHEM_ATOM_UDEF_STEREO_COUNT>
0

> <PUBCHEM_BOND_DEF_STEREO_COUNT>
0

> <PUBCHEM_BOND_UDEF_STEREO_COUNT>
0

> <PUBCHEM_ISOTOPIC_ATOM_COUNT>
0

> <PUBCHEM_COMPONENT_COUNT>
1

> <PUBCHEM_CACTVS_TAUTO_COUNT>
2

> <PUBCHEM_COORDINATE_TYPE>
1
5
255

> <PUBCHEM_BONDANNOTATIONS>
1  5  8
1  6  8
10  11  8
12  14  8
13  15  8
2  14  8
2  15  8
3  4  8
3  5  8
3  8  8
4  6  8
5  9  8
7  12  8
7  13  8
8  10  8
9  11  8

$$$$
5328779
  -OEChem-11021605012D

 36 37  0     0  0  0  0  0  0999 V2000
    2.5369   -3.3450    0.0000 O   0  0  0  0  0  0  0  0  0  0  0  0
    4.2690   -4.3450    0.0000 O   0  0  0  0  0  0  0  0  0  0  0  0
    4.2690    1.6550    0.0000 O   0  0  0  0  0  0  0  0  0  0  0  0
    6.0010    1.6550    0.0000 N   0  0  0  0  0  0  0  0  0  0  0  0
    6.8671   -0.8450    0.0000 N   0  0  0  0  0  0  0  0  0  0  0  0
    6.0010    2.6550    0.0000 C   0  0  0  0  0  0  0  0  0  0  0  0
    6.8671    3.1550    0.0000 C   0  0  0  0  0  0  0  0  0  0  0  0
    4.2690   -1.3450    0.0000 C   0  0  0  0  0  0  0  0  0  0  0  0
    7.7331    2.6550    0.0000 C   0  0  0  0  0  0  0  0  0  0  0  0
    6.8671    4.1550    0.0000 C   0  0  0  0  0  0  0  0  0  0  0  0
    4.2690   -0.3450    0.0000 C   0  0  0  0  0  0  0  0  0  0  0  0
    5.1350    1.1550    0.0000 C   0  0  0  0  0  0  0  0  0  0  0  0
    5.1350    0.1550    0.0000 C   0  0  0  0  0  0  0  0  0  0  0  0
    3.4030   -1.8450    0.0000 C   0  0  0  0  0  0  0  0  0  0  0  0
    5.1350   -1.8450    0.0000 C   0  0  0  0  0  0  0  0  0  0  0  0
    3.4030   -2.8450    0.0000 C   0  0  0  0  0  0  0  0  0  0  0  0
    8.5991    3.1550    0.0000 C   0  0  0  0  0  0  0  0  0  0  0  0
    7.7331    4.6550    0.0000 C   0  0  0  0  0  0  0  0  0  0  0  0
    4.2690   -3.3450    0.0000 C   0  0  0  0  0  0  0  0  0  0  0  0
    5.1350   -2.8450    0.0000 C   0  0  0  0  0  0  0  0  0  0  0  0
    8.5991    4.1550    0.0000 C   0  0  0  0  0  0  0  0  0  0  0  0
    6.0010   -0.3450    0.0000 C   0  0  0  0  0  0  0  0  0  0  0  0
    5.7890    3.2376    0.0000 H   0  0  0  0  0  0  0  0  0  0  0  0
    5.3905    2.5473    0.0000 H   0  0  0  0  0  0  0  0  0  0  0  0
    6.5380    1.3450    0.0000 H   0  0  0  0  0  0  0  0  0  0  0  0
    7.7331    2.0350    0.0000 H   0  0  0  0  0  0  0  0  0  0  0  0
    6.3301    4.4650    0.0000 H   0  0  0  0  0  0  0  0  0  0  0  0
    3.7320   -0.0350    0.0000 H   0  0  0  0  0  0  0  0  0  0  0  0
    2.8660   -1.5350    0.0000 H   0  0  0  0  0  0  0  0  0  0  0  0
    5.6720   -1.5350    0.0000 H   0  0  0  0  0  0  0  0  0  0  0  0
    9.1360    2.8450    0.0000 H   0  0  0  0  0  0  0  0  0  0  0  0
    7.7331    5.2750    0.0000 H   0  0  0  0  0  0  0  0  0  0  0  0
    5.6720   -3.1550    0.0000 H   0  0  0  0  0  0  0  0  0  0  0  0
    9.1360    4.4650    0.0000 H   0  0  0  0  0  0  0  0  0  0  0  0
    2.0000   -3.0350    0.0000 H   0  0  0  0  0  0  0  0  0  0  0  0
    4.8059   -4.6550    0.0000 H   0  0  0  0  0  0  0  0  0  0  0  0
  1 16  1  0  0  0  0
  1 35  1  0  0  0  0
  2 19  1  0  0  0  0
  2 36  1  0  0  0  0
  3 12  2  0  0  0  0
  4  6  1  0  0  0  0
  4 12  1  0  0  0  0
  4 25  1  0  0  0  0
  5 22  3  0  0  0  0
  6  7  1  0  0  0  0
  6 23  1  0  0  0  0
  6 24  1  0  0  0  0
  7  9  2  0  0  0  0
  7 10  1  0  0  0  0
  8 11  1  0  0  0  0
  8 14  2  0  0  0  0
  8 15  1  0  0  0  0
  9 17  1  0  0  0  0
  9 26  1  0  0  0  0
 10 18  2  0  0  0  0
 10 27  1  0  0  0  0
 11 13  2  0  0  0  0
 11 28  1  0  0  0  0
 12 13  1  0  0  0  0
 13 22  1  0  0  0  0
 14 16  1  0  0  0  0
 14 29  1  0  0  0  0
 15 20  2  0  0  0  0
 15 30  1  0  0  0  0
 16 19  2  0  0  0  0
 17 21  2  0  0  0  0
 17 31  1  0  0  0  0
 18 21  1  0  0  0  0
 18 32  1  0  0  0  0
 19 20  1  0  0  0  0
 20 33  1  0  0  0  0
 21 34  1  0  0  0  0
M  END
> <PUBCHEM_COMPOUND_CID>
5328779

> <PUBCHEM_COMPOUND_CANONICALIZED>
1

> <PUBCHEM_CACTVS_COMPLEXITY>
460

> <PUBCHEM_CACTVS_HBOND_ACCEPTOR>
4

> <PUBCHEM_CACTVS_HBOND_DONOR>
3

> <PUBCHEM_CACTVS_ROTATABLE_BOND>
4

> <PUBCHEM_CACTVS_SUBSKEYS>
AAADccB7MAAAAAAAAAAAAAAAAAAAAAAAAAAwYAAAAAAAAAABQAAAHgAQCAAADATBmAQwBoLAAgCYBiFSEACiAAAgIAAIiIEOjMgJpiKCkROEcAlkxhGJmYeQwBAOIAABAAAAQABAAAIAAACAAAAAAAAAAA==

> <PUBCHEM_IUPAC_OPENEYE_NAME>
(E)-N-benzyl-2-cyano-3-(3,4-dihydroxyphenyl)prop-2-enamide

> <PUBCHEM_IUPAC_CAS_NAME>
(E)-2-cyano-3-(3,4-dihydroxyphenyl)-N-(phenylmethyl)-2-propenamide

> <PUBCHEM_IUPAC_NAME>
(E)-N-benzyl-2-cyano-3-(3,4-dihydroxyphenyl)prop-2-enamide

> <PUBCHEM_IUPAC_SYSTEMATIC_NAME>
(E)-3-[3,4-bis(oxidanyl)phenyl]-2-cyano-N-(phenylmethyl)prop-2-enamide

> <PUBCHEM_IUPAC_TRADITIONAL_NAME>
(E)-N-benzyl-2-cyano-3-(3,4-dihydroxyphenyl)acrylamide

> <PUBCHEM_IUPAC_INCHI>
InChI=1S/C17H14N2O3/c18-10-14(8-13-6-7-15(20)16(21)9-13)17(22)19-11-12-4-2-1-3-5-12/h1-9,20-21H,11H2,(H,19,22)/b14-8+

> <PUBCHEM_IUPAC_INCHIKEY>
TUCIOBMMDDOEMM-RIYZIHGNSA-N

> <PUBCHEM_XLOGP3>
2.4

> <PUBCHEM_EXACT_MASS>
294.1

> <PUBCHEM_MOLECULAR_FORMULA>
C17H14N2O3

> <PUBCHEM_MOLECULAR_WEIGHT>
294.31

> <PUBCHEM_OPENEYE_CAN_SMILES>
C1=CC=C(C=C1)CNC(=O)C(=CC2=CC(=C(C=C2)O)O)C#N

> <PUBCHEM_OPENEYE_ISO_SMILES>
C1=CC=C(C=C1)CNC(=O)/C(=C/C2=CC(=C(C=C2)O)O)/C#N

> <PUBCHEM_CACTVS_TPSA>
93.4

> <PUBCHEM_MONOISOTOPIC_WEIGHT>
294.1

> <PUBCHEM_TOTAL_CHARGE>
0

> <PUBCHEM_HEAVY_ATOM_COUNT>
22

> <PUBCHEM_ATOM_DEF_STEREO_COUNT>
0

> <PUBCHEM_ATOM_UDEF_STEREO_COUNT>
0

> <PUBCHEM_BOND_DEF_STEREO_COUNT>
1

> <PUBCHEM_BOND_UDEF_STEREO_COUNT>
0

> <PUBCHEM_ISOTOPIC_ATOM_COUNT>
0

> <PUBCHEM_COMPONENT_COUNT>
1

> <PUBCHEM_CACTVS_TAUTO_COUNT>
29

> <PUBCHEM_COORDINATE_TYPE>
1
5
255

> <PUBCHEM_BONDANNOTATIONS>
10  18  8
14  16  8
15  20  8
16  19  8
17  21  8
18  21  8
19  20  8
7  10  8
7  9  8
8  14  8
8  15  8
9  17  8

$$$$
753704
  -OEChem-11021605012D

 31 33  0     0  0  0  0  0  0999 V2000
    6.4417    4.8333    0.0000 Cl  0  0  0  0  0  0  0  0  0  0  0  0
    4.6456   -0.4300    0.0000 S   0  0  0  0  0  0  0  0  0  0  0  0
    2.8660   -4.5233    0.0000 O   0  0  0  0  0  0  0  0  0  0  0  0
    2.8660   -0.5233    0.0000 N   0  0  0  0  0  0  0  0  0  0  0  0
    3.8366    0.9712    0.0000 N   0  0  0  0  0  0  0  0  0  0  0  0
    5.2215    2.0927    0.0000 C   0  0  0  0  0  0  0  0  0  0  0  0
    4.8147    1.1791    0.0000 C   0  0  0  0  0  0  0  0  0  0  0  0
    2.8660   -1.5233    0.0000 C   0  0  0  0  0  0  0  0  0  0  0  0
    3.7320   -0.0233    0.0000 C   0  0  0  0  0  0  0  0  0  0  0  0
    5.3147    0.3131    0.0000 C   0  0  0  0  0  0  0  0  0  0  0  0
    6.2160    2.1972    0.0000 C   0  0  0  0  0  0  0  0  0  0  0  0
    4.6337    2.9017    0.0000 C   0  0  0  0  0  0  0  0  0  0  0  0
    2.0000   -2.0233    0.0000 C   0  0  0  0  0  0  0  0  0  0  0  0
    3.7320   -2.0233    0.0000 C   0  0  0  0  0  0  0  0  0  0  0  0
    6.6227    3.1108    0.0000 C   0  0  0  0  0  0  0  0  0  0  0  0
    5.0404    3.8152    0.0000 C   0  0  0  0  0  0  0  0  0  0  0  0
    2.0000   -3.0233    0.0000 C   0  0  0  0  0  0  0  0  0  0  0  0
    3.7320   -3.0233    0.0000 C   0  0  0  0  0  0  0  0  0  0  0  0
    2.8660   -3.5233    0.0000 C   0  0  0  0  0  0  0  0  0  0  0  0
    6.0349    3.9198    0.0000 C   0  0  0  0  0  0  0  0  0  0  0  0
    2.3291   -0.2133    0.0000 H   0  0  0  0  0  0  0  0  0  0  0  0
    5.9313    0.2483    0.0000 H   0  0  0  0  0  0  0  0  0  0  0  0
    6.5804    1.6956    0.0000 H   0  0  0  0  0  0  0  0  0  0  0  0
    4.0171    2.8369    0.0000 H   0  0  0  0  0  0  0  0  0  0  0  0
    1.4631   -1.7133    0.0000 H   0  0  0  0  0  0  0  0  0  0  0  0
    4.2690   -1.7133    0.0000 H   0  0  0  0  0  0  0  0  0  0  0  0
    7.2393    3.1756    0.0000 H   0  0  0  0  0  0  0  0  0  0  0  0
    4.6760    4.3168    0.0000 H   0  0  0  0  0  0  0  0  0  0  0  0
    1.4631   -3.3333    0.0000 H   0  0  0  0  0  0  0  0  0  0  0  0
    4.2690   -3.3333    0.0000 H   0  0  0  0  0  0  0  0  0  0  0  0
    2.3291   -4.8333    0.0000 H   0  0  0  0  0  0  0  0  0  0  0  0
  1 20  1  0  0  0  0
  2  9  1  0  0  0  0
  2 10  1  0  0  0  0
  3 19  1  0  0  0  0
  3 31  1  0  0  0  0
  4  8  1  0  0  0  0
  4  9  1  0  0  0  0
  4 21  1  0  0  0  0
  5  7  1  0  0  0  0
  5  9  2  0  0  0  0
  6  7  1  0  0  0  0
  6 11  2  0  0  0  0
  6 12  1  0  0  0  0
  7 10  2  0  0  0  0
  8 13  2  0  0  0  0
  8 14  1  0  0  0  0
 10 22  1  0  0  0  0
 11 15  1  0  0  0  0
 11 23  1  0  0  0  0
 12 16  2  0  0  0  0
 12 24  1  0  0  0  0
 13 17  1  0  0  0  0
 13 25  1  0  0  0  0
 14 18  2  0  0  0  0
 14 26  1  0  0  0  0
 15 20  2  0  0  0  0
 15 27  1  0  0  0  0
 16 20  1  0  0  0  0
 16 28  1  0  0  0  0
 17 19  2  0  0  0  0
 17 29  1  0  0  0  0
 18 19  1  0  0  0  0
 18 30  1  0  0  0  0
M  END
> <PUBCHEM_COMPOUND_CID>
753704

> <PUBCHEM_COMPOUND_CANONICALIZED>
1

> <PUBCHEM_CACTVS_COMPLEXITY>
304

> <PUBCHEM_CACTVS_HBOND_ACCEPTOR>
4

> <PUBCHEM_CACTVS_HBOND_DONOR>
2

> <PUBCHEM_CACTVS_ROTATABLE_BOND>
3

> <PUBCHEM_CACTVS_SUBSKEYS>
AAADccBzIABEAAAAAAAAAAAAAAAAAWAAAAAwYAAAAAAAAAAB0AAAHgYQCAAADA6F3iCx15LIEgikAyRiZACC8KlhLzkJiDQ2bpiIJqLjm5OEcAhs0BNI2CewwIAOBEAAAAAAAAAIgAAAAAAAAAAAAAAAAA==

> <PUBCHEM_IUPAC_OPENEYE_NAME>
4-[[4-(4-chlorophenyl)thiazol-2-yl]amino]phenol

> <PUBCHEM_IUPAC_CAS_NAME>
4-[[4-(4-chlorophenyl)-2-thiazolyl]amino]phenol

> <PUBCHEM_IUPAC_NAME>
4-[[4-(4-chlorophenyl)-1,3-thiazol-2-yl]amino]phenol

> <PUBCHEM_IUPAC_SYSTEMATIC_NAME>
4-[[4-(4-chlorophenyl)-1,3-thiazol-2-yl]amino]phenol

> <PUBCHEM_IUPAC_TRADITIONAL_NAME>
4-[[4-(4-chlorophenyl)thiazol-2-yl]amino]phenol

> <PUBCHEM_IUPAC_INCHI>
InChI=1S/C15H11ClN2OS/c16-11-3-1-10(2-4-11)14-9-20-15(18-14)17-12-5-7-13(19)8-6-12/h1-9,19H,(H,17,18)

> <PUBCHEM_IUPAC_INCHIKEY>
ZFGXZJKLOFCECI-UHFFFAOYSA-N

> <PUBCHEM_XLOGP3_AA>
4.8

> <PUBCHEM_EXACT_MASS>
302.028

> <PUBCHEM_MOLECULAR_FORMULA>
C15H11ClN2OS

> <PUBCHEM_MOLECULAR_WEIGHT>
302.776

> <PUBCHEM_OPENEYE_CAN_SMILES>
C1=CC(=CC=C1C2=CSC(=N2)NC3=CC=C(C=C3)O)Cl

> <PUBCHEM_OPENEYE_ISO_SMILES>
C1=CC(=CC=C1C2=CSC(=N2)NC3=CC=C(C=C3)O)Cl

> <PUBCHEM_CACTVS_TPSA>
73.4

> <PUBCHEM_MONOISOTOPIC_WEIGHT>
302.028

> <PUBCHEM_TOTAL_CHARGE>
0

> <PUBCHEM_HEAVY_ATOM_COUNT>
20

> <PUBCHEM_ATOM_DEF_STEREO_COUNT>
0

> <PUBCHEM_ATOM_UDEF_STEREO_COUNT>
0

> <PUBCHEM_BOND_DEF_STEREO_COUNT>
0

> <PUBCHEM_BOND_UDEF_STEREO_COUNT>
0

> <PUBCHEM_ISOTOPIC_ATOM_COUNT>
0

> <PUBCHEM_COMPONENT_COUNT>
1

> <PUBCHEM_CACTVS_TAUTO_COUNT>
6

> <PUBCHEM_COORDINATE_TYPE>
1
5
255

> <PUBCHEM_BONDANNOTATIONS>
11  15  8
12  16  8
13  17  8
14  18  8
15  20  8
16  20  8
17  19  8
18  19  8
2  10  8
2  9  8
5  7  8
5  9  8
6  11  8
6  12  8
7  10  8
8  13  8
8  14  8

$$$$
5354038
  -OEChem-11021605012D

 36 39  0     0  0  0  0  0  0999 V2000
    2.0000   -0.9336    0.0000 Br  0  0  0  0  0  0  0  0  0  0  0  0
    7.1279   -1.9336    0.0000 O   0  0  0  0  0  0  0  0  0  0  0  0
    4.1984    0.4629    0.0000 N   0  0  0  0  0  0  0  0  0  0  0  0
    5.5443   -2.7384    0.0000 N   0  0  0  0  0  0  0  0  0  0  0  0
    3.7933    1.3707    0.0000 C   0  0  0  0  0  0  0  0  0  0  0  0
    4.5376    2.0385    0.0000 C   0  0  0  0  0  0  0  0  0  0  0  0
    2.8428    1.6813    0.0000 C   0  0  0  0  0  0  0  0  0  0  0  0
    4.3314    3.0170    0.0000 C   0  0  0  0  0  0  0  0  0  0  0  0
    2.6365    2.6598    0.0000 C   0  0  0  0  0  0  0  0  0  0  0  0
    3.3808    3.3277    0.0000 C   0  0  0  0  0  0  0  0  0  0  0  0
    5.3963    1.5378    0.0000 C   0  0  0  0  0  0  0  0  0  0  0  0
    5.1871    0.5659    0.0000 C   0  0  0  0  0  0  0  0  0  0  0  0
    5.8550   -0.1784    0.0000 C   0  0  0  0  0  0  0  0  0  0  0  0
    5.5443   -1.1289    0.0000 C   0  0  0  0  0  0  0  0  0  0  0  0
    4.5981   -1.4336    0.0000 C   0  0  0  0  0  0  0  0  0  0  0  0
    4.5981   -2.4336    0.0000 C   0  0  0  0  0  0  0  0  0  0  0  0
    6.1279   -1.9336    0.0000 C   0  0  0  0  0  0  0  0  0  0  0  0
    3.7320   -0.9336    0.0000 C   0  0  0  0  0  0  0  0  0  0  0  0
    3.7320   -2.9336    0.0000 C   0  0  0  0  0  0  0  0  0  0  0  0
    2.8660   -1.4336    0.0000 C   0  0  0  0  0  0  0  0  0  0  0  0
    2.8660   -2.4336    0.0000 C   0  0  0  0  0  0  0  0  0  0  0  0
    2.2231    1.6608    0.0000 H   0  0  0  0  0  0  0  0  0  0  0  0
    2.7554    1.0675    0.0000 H   0  0  0  0  0  0  0  0  0  0  0  0
    4.9510    3.0376    0.0000 H   0  0  0  0  0  0  0  0  0  0  0  0
    4.4187    3.6308    0.0000 H   0  0  0  0  0  0  0  0  0  0  0  0
    2.3089    3.1862    0.0000 H   0  0  0  0  0  0  0  0  0  0  0  0
    2.0613    2.4286    0.0000 H   0  0  0  0  0  0  0  0  0  0  0  0
    3.6729    3.8746    0.0000 H   0  0  0  0  0  0  0  0  0  0  0  0
    2.8929    3.7102    0.0000 H   0  0  0  0  0  0  0  0  0  0  0  0
    3.8884   -0.0741    0.0000 H   0  0  0  0  0  0  0  0  0  0  0  0
    5.9636    1.7880    0.0000 H   0  0  0  0  0  0  0  0  0  0  0  0
    6.4616   -0.0505    0.0000 H   0  0  0  0  0  0  0  0  0  0  0  0
    5.7369   -3.3277    0.0000 H   0  0  0  0  0  0  0  0  0  0  0  0
    3.7320   -0.3136    0.0000 H   0  0  0  0  0  0  0  0  0  0  0  0
    3.7320   -3.5536    0.0000 H   0  0  0  0  0  0  0  0  0  0  0  0
    2.3291   -2.7436    0.0000 H   0  0  0  0  0  0  0  0  0  0  0  0
  1 20  1  0  0  0  0
  2 17  2  0  0  0  0
  3  5  1  0  0  0  0
  3 12  1  0  0  0  0
  3 30  1  0  0  0  0
  4 16  1  0  0  0  0
  4 17  1  0  0  0  0
  4 33  1  0  0  0  0
  5  6  2  0  0  0  0
  5  7  1  0  0  0  0
  6  8  1  0  0  0  0
  6 11  1  0  0  0  0
  7  9  1  0  0  0  0
  7 22  1  0  0  0  0
  7 23  1  0  0  0  0
  8 10  1  0  0  0  0
  8 24  1  0  0  0  0
  8 25  1  0  0  0  0
  9 10  1  0  0  0  0
  9 26  1  0  0  0  0
  9 27  1  0  0  0  0
 10 28  1  0  0  0  0
 10 29  1  0  0  0  0
 11 12  2  0  0  0  0
 11 31  1  0  0  0  0
 12 13  1  0  0  0  0
 13 14  2  0  0  0  0
 13 32  1  0  0  0  0
 14 15  1  0  0  0  0
 14 17  1  0  0  0  0
 15 16  2  0  0  0  0
 15 18  1  0  0  0  0
 16 19  1  0  0  0  0
 18 20  2  0  0  0  0
 18 34  1  0  0  0  0
 19 21  2  0  0  0  0
 19 35  1  0  0  0  0
 20 21  1  0  0  0  0
 21 36  1  0  0  0  0
M  END
> <PUBCHEM_COMPOUND_CID>
5354038

> <PUBCHEM_COMPOUND_CANONICALIZED>
1

> <PUBCHEM_CACTVS_COMPLEXITY>
464

> <PUBCHEM_CACTVS_HBOND_ACCEPTOR>
1

> <PUBCHEM_CACTVS_HBOND_DONOR>
2

> <PUBCHEM_CACTVS_ROTATABLE_BOND>
1

> <PUBCHEM_CACTVS_SUBSKEYS>
AAADccB7IAAAEAAAAAAAAAAAAAAAAWLAAAAwYAAAAAAAAFgBwAAAHgBQAAABrAiBngAwwJLJkACoAyVyVACCgCAhAiQImSEwZPgIIPLAlZGEIAhglADIy5cciICOAAAgEAACAAAAAEAgAAQAAAAAAAAAAA==

> <PUBCHEM_IUPAC_OPENEYE_NAME>
(3E)-5-bromo-3-(4,5,6,7-tetrahydro-1H-indol-2-ylmethylene)indolin-2-one

> <PUBCHEM_IUPAC_CAS_NAME>
(3E)-5-bromo-3-(4,5,6,7-tetrahydro-1H-indol-2-ylmethylidene)-1H-indol-2-one

> <PUBCHEM_IUPAC_NAME>
(3E)-5-bromo-3-(4,5,6,7-tetrahydro-1H-indol-2-ylmethylidene)-1H-indol-2-one

> <PUBCHEM_IUPAC_SYSTEMATIC_NAME>
(3E)-5-bromanyl-3-(4,5,6,7-tetrahydro-1H-indol-2-ylmethylidene)-1H-indol-2-one

> <PUBCHEM_IUPAC_TRADITIONAL_NAME>
(3E)-5-bromo-3-(4,5,6,7-tetrahydro-1H-indol-2-ylmethylene)oxindole

> <PUBCHEM_IUPAC_INCHI>
InChI=1S/C17H15BrN2O/c18-11-5-6-16-13(8-11)14(17(21)20-16)9-12-7-10-3-1-2-4-15(10)19-12/h5-9,19H,1-4H2,(H,20,21)/b14-9+

> <PUBCHEM_IUPAC_INCHIKEY>
RFHPWPWVGFSLOP-NTEUORMPSA-N

> <PUBCHEM_XLOGP3_AA>
3.6

> <PUBCHEM_EXACT_MASS>
342.037

> <PUBCHEM_MOLECULAR_FORMULA>
C17H15BrN2O

> <PUBCHEM_MOLECULAR_WEIGHT>
343.224

> <PUBCHEM_OPENEYE_CAN_SMILES>
C1CCC2=C(C1)C=C(N2)C=C3C4=C(C=CC(=C4)Br)NC3=O

> <PUBCHEM_OPENEYE_ISO_SMILES>
C1CCC2=C(C1)C=C(N2)/C=C/3\C4=C(C=CC(=C4)Br)NC3=O

> <PUBCHEM_CACTVS_TPSA>
44.9

> <PUBCHEM_MONOISOTOPIC_WEIGHT>
342.037

> <PUBCHEM_TOTAL_CHARGE>
0

> <PUBCHEM_HEAVY_ATOM_COUNT>
21

> <PUBCHEM_ATOM_DEF_STEREO_COUNT>
0

> <PUBCHEM_ATOM_UDEF_STEREO_COUNT>
0

> <PUBCHEM_BOND_DEF_STEREO_COUNT>
1

> <PUBCHEM_BOND_UDEF_STEREO_COUNT>
0

> <PUBCHEM_ISOTOPIC_ATOM_COUNT>
0

> <PUBCHEM_COMPONENT_COUNT>
1

> <PUBCHEM_CACTVS_TAUTO_COUNT>
10

> <PUBCHEM_COORDINATE_TYPE>
1
5
255

> <PUBCHEM_BONDANNOTATIONS>
11  12  8
15  16  8
15  18  8
16  19  8
18  20  8
19  21  8
20  21  8
3  12  8
3  5  8
5  6  8
6  11  8

$$$$
71583657
  -OEChem-11021605012D

 57 61  0     0  0  0  0  0  0999 V2000
   12.5642   -0.5985    0.0000 Cl  0  0  0  0  0  0  0  0  0  0  0  0
   14.3208    4.2268    0.0000 S   0  0  0  0  0  0  0  0  0  0  0  0
   12.5411    1.4013    0.0000 O   0  0  0  0  0  0  0  0  0  0  0  0
    6.2031   -0.0595    0.0000 O   0  0  0  0  0  0  0  0  0  0  0  0
    2.6131    0.2752    0.0000 O   0  0  0  0  0  0  0  0  0  0  0  0
    7.4361   -3.7967    0.0000 N   0  0  0  0  0  0  0  0  0  0  0  0
    9.1003   -0.6386    0.0000 N   0  0  0  0  0  0  0  0  0  0  0  0
    9.1119   -3.7078    0.0000 N   0  0  0  0  0  0  0  0  0  0  0  0
    4.8489   -1.1394    0.0000 N   0  0  0  0  0  0  0  0  0  0  0  0
   10.0180   -2.1524    0.0000 N   0  0  0  0  0  0  0  0  0  0  0  0
    6.0273   -2.6732    0.0000 C   0  0  0  0  0  0  0  0  0  0  0  0
    6.4612   -3.5742    0.0000 C   0  0  0  0  0  0  0  0  0  0  0  0
    6.4612   -1.7722    0.0000 C   0  0  0  0  0  0  0  0  0  0  0  0
    8.2180   -2.1732    0.0000 C   0  0  0  0  0  0  0  0  0  0  0  0
    8.2180   -3.1732    0.0000 C   0  0  0  0  0  0  0  0  0  0  0  0
    7.4361   -1.5497    0.0000 C   0  0  0  0  0  0  0  0  0  0  0  0
    9.1119   -1.6385    0.0000 C   0  0  0  0  0  0  0  0  0  0  0  0
    5.8377   -0.9904    0.0000 C   0  0  0  0  0  0  0  0  0  0  0  0
    9.9605   -0.1286    0.0000 C   0  0  0  0  0  0  0  0  0  0  0  0
    4.2254   -0.3576    0.0000 C   0  0  0  0  0  0  0  0  0  0  0  0
   10.0180   -3.1940    0.0000 C   0  0  0  0  0  0  0  0  0  0  0  0
   13.3897    2.9112    0.0000 C   0  0  0  0  0  0  0  0  0  0  0  0
   10.8323   -0.6186    0.0000 C   0  0  0  0  0  0  0  0  0  0  0  0
    9.9490    0.8713    0.0000 C   0  0  0  0  0  0  0  0  0  0  0  0
   11.6809    0.8914    0.0000 C   0  0  0  0  0  0  0  0  0  0  0  0
   12.5295    2.4013    0.0000 C   0  0  0  0  0  0  0  0  0  0  0  0
   13.3781    3.9112    0.0000 C   0  0  0  0  0  0  0  0  0  0  0  0
   11.6925   -0.1086    0.0000 C   0  0  0  0  0  0  0  0  0  0  0  0
   10.8092    1.3813    0.0000 C   0  0  0  0  0  0  0  0  0  0  0  0
    3.2366   -0.5066    0.0000 C   0  0  0  0  0  0  0  0  0  0  0  0
   11.6578    2.8912    0.0000 C   0  0  0  0  0  0  0  0  0  0  0  0
   14.3394    2.6175    0.0000 C   0  0  0  0  0  0  0  0  0  0  0  0
   12.5064    4.4011    0.0000 C   0  0  0  0  0  0  0  0  0  0  0  0
   11.6462    3.8912    0.0000 C   0  0  0  0  0  0  0  0  0  0  0  0
   14.9137    3.4289    0.0000 C   0  0  0  0  0  0  0  0  0  0  0  0
    5.5426   -2.2866    0.0000 H   0  0  0  0  0  0  0  0  0  0  0  0
    5.5426   -3.0598    0.0000 H   0  0  0  0  0  0  0  0  0  0  0  0
    5.8568   -3.7121    0.0000 H   0  0  0  0  0  0  0  0  0  0  0  0
    6.4612   -4.1941    0.0000 H   0  0  0  0  0  0  0  0  0  0  0  0
    7.5741   -0.9452    0.0000 H   0  0  0  0  0  0  0  0  0  0  0  0
    7.5741   -4.4011    0.0000 H   0  0  0  0  0  0  0  0  0  0  0  0
    8.5599   -0.3348    0.0000 H   0  0  0  0  0  0  0  0  0  0  0  0
    4.6224   -1.7166    0.0000 H   0  0  0  0  0  0  0  0  0  0  0  0
    4.7699   -0.0611    0.0000 H   0  0  0  0  0  0  0  0  0  0  0  0
    4.0279    0.2301    0.0000 H   0  0  0  0  0  0  0  0  0  0  0  0
   10.5537   -3.5061    0.0000 H   0  0  0  0  0  0  0  0  0  0  0  0
   10.8394   -1.2385    0.0000 H   0  0  0  0  0  0  0  0  0  0  0  0
    9.4085    1.1751    0.0000 H   0  0  0  0  0  0  0  0  0  0  0  0
   10.8020    2.0013    0.0000 H   0  0  0  0  0  0  0  0  0  0  0  0
    2.6921   -0.8032    0.0000 H   0  0  0  0  0  0  0  0  0  0  0  0
    3.4340   -1.0944    0.0000 H   0  0  0  0  0  0  0  0  0  0  0  0
   11.1245    2.5750    0.0000 H   0  0  0  0  0  0  0  0  0  0  0  0
   14.5388    2.0304    0.0000 H   0  0  0  0  0  0  0  0  0  0  0  0
   12.4992    5.0211    0.0000 H   0  0  0  0  0  0  0  0  0  0  0  0
   11.1057    4.1949    0.0000 H   0  0  0  0  0  0  0  0  0  0  0  0
   15.5336    3.4361    0.0000 H   0  0  0  0  0  0  0  0  0  0  0  0
    2.0000    0.1828    0.0000 H   0  0  0  0  0  0  0  0  0  0  0  0
  1 28  1  0  0  0  0
  2 27  1  0  0  0  0
  2 35  1  0  0  0  0
  3 25  1  0  0  0  0
  3 26  1  0  0  0  0
  4 18  2  0  0  0  0
  5 30  1  0  0  0  0
  5 57  1  0  0  0  0
  6 12  1  0  0  0  0
  6 15  1  0  0  0  0
  6 41  1  0  0  0  0
  7 17  1  0  0  0  0
  7 19  1  0  0  0  0
  7 42  1  0  0  0  0
  8 15  1  0  0  0  0
  8 21  2  0  0  0  0
  9 18  1  0  0  0  0
  9 20  1  0  0  0  0
  9 43  1  0  0  0  0
 10 17  2  0  0  0  0
 10 21  1  0  0  0  0
 11 12  1  0  0  0  0
 11 13  1  0  0  0  0
 11 36  1  0  0  0  0
 11 37  1  0  0  0  0
 12 38  1  0  0  0  0
 12 39  1  0  0  0  0
 13 16  2  0  0  0  0
 13 18  1  0  0  0  0
 14 15  2  0  0  0  0
 14 16  1  0  0  0  0
 14 17  1  0  0  0  0
 16 40  1  0  0  0  0
 19 23  2  0  0  0  0
 19 24  1  0  0  0  0
 20 30  1  0  0  0  0
 20 44  1  0  0  0  0
 20 45  1  0  0  0  0
 21 46  1  0  0  0  0
 22 26  2  0  0  0  0
 22 27  1  0  0  0  0
 22 32  1  0  0  0  0
 23 28  1  0  0  0  0
 23 47  1  0  0  0  0
 24 29  2  0  0  0  0
 24 48  1  0  0  0  0
 25 28  2  0  0  0  0
 25 29  1  0  0  0  0
 26 31  1  0  0  0  0
 27 33  2  0  0  0  0
 29 49  1  0  0  0  0
 30 50  1  0  0  0  0
 30 51  1  0  0  0  0
 31 34  2  0  0  0  0
 31 52  1  0  0  0  0
 32 35  2  0  0  0  0
 32 53  1  0  0  0  0
 33 34  1  0  0  0  0
 33 54  1  0  0  0  0
 34 55  1  0  0  0  0
 35 56  1  0  0  0  0
M  END
> <PUBCHEM_COMPOUND_CID>
71583657

> <PUBCHEM_COMPOUND_CANONICALIZED>
1

> <PUBCHEM_CACTVS_COMPLEXITY>
761

> <PUBCHEM_CACTVS_HBOND_ACCEPTOR>
8

> <PUBCHEM_CACTVS_HBOND_DONOR>
4

> <PUBCHEM_CACTVS_ROTATABLE_BOND>
7

> <PUBCHEM_CACTVS_SUBSKEYS>
AAADceB7sABEAAAAAAAAAAAAAAAAASAAAAA8YIAABAAAAEgB/AAAHgYQCAAADA7l2ia199bIFgisAidzdACDiKkxL/BJ2Lkub9iOPnPl+9uGPCjs1hP46ae0wKAOAEAABAIMCAAAgAAIBBgQAAAAAAAAAA==

> <PUBCHEM_IUPAC_OPENEYE_NAME>
4-[4-(benzothiophen-4-yloxy)-3-chloro-anilino]-N-(2-hydroxyethyl)-8,9-dihydro-7H-pyrimido[4,5-b]azepine-6-carboxamide

> <PUBCHEM_IUPAC_CAS_NAME>
4-[4-(1-benzothiophen-4-yloxy)-3-chloroanilino]-N-(2-hydroxyethyl)-8,9-dihydro-7H-pyrimido[4,5-b]azepine-6-carboxamide

> <PUBCHEM_IUPAC_NAME>
4-[4-(1-benzothiophen-4-yloxy)-3-chloroanilino]-N-(2-hydroxyethyl)-8,9-dihydro-7H-pyrimido[4,5-b]azepine-6-carboxamide

> <PUBCHEM_IUPAC_SYSTEMATIC_NAME>
4-[[4-(1-benzothiophen-4-yloxy)-3-chloranyl-phenyl]amino]-N-(2-hydroxyethyl)-8,9-dihydro-7H-pyrimido[4,5-b]azepine-6-carboxamide

> <PUBCHEM_IUPAC_TRADITIONAL_NAME>
4-[4-(benzothiophen-4-yloxy)-3-chloro-anilino]-N-(2-hydroxyethyl)-8,9-dihydro-7H-pyrimid[4,5-b]azepine-6-carboxamide

> <PUBCHEM_IUPAC_INCHI>
InChI=1S/C25H22ClN5O3S/c26-19-13-16(4-5-21(19)34-20-2-1-3-22-17(20)7-11-35-22)31-24-18-12-15(25(33)28-9-10-32)6-8-27-23(18)29-14-30-24/h1-5,7,11-14,32H,6,8-10H2,(H,28,33)(H2,27,29,30,31)

> <PUBCHEM_IUPAC_INCHIKEY>
QHUDPFOODLMGQO-UHFFFAOYSA-N

> <PUBCHEM_XLOGP3_AA>
4.7

> <PUBCHEM_EXACT_MASS>
507.113

> <PUBCHEM_MOLECULAR_FORMULA>
C25H22ClN5O3S

> <PUBCHEM_MOLECULAR_WEIGHT>
507.993

> <PUBCHEM_OPENEYE_CAN_SMILES>
C1CNC2=C(C=C1C(=O)NCCO)C(=NC=N2)NC3=CC(=C(C=C3)OC4=C5C=CSC5=CC=C4)Cl

> <PUBCHEM_OPENEYE_ISO_SMILES>
C1CNC2=C(C=C1C(=O)NCCO)C(=NC=N2)NC3=CC(=C(C=C3)OC4=C5C=CSC5=CC=C4)Cl

> <PUBCHEM_CACTVS_TPSA>
137

> <PUBCHEM_MONOISOTOPIC_WEIGHT>
507.113

> <PUBCHEM_TOTAL_CHARGE>
0

> <PUBCHEM_HEAVY_ATOM_COUNT>
35

> <PUBCHEM_ATOM_DEF_STEREO_COUNT>
0

> <PUBCHEM_ATOM_UDEF_STEREO_COUNT>
0

> <PUBCHEM_BOND_DEF_STEREO_COUNT>
0

> <PUBCHEM_BOND_UDEF_STEREO_COUNT>
0

> <PUBCHEM_ISOTOPIC_ATOM_COUNT>
0

> <PUBCHEM_COMPONENT_COUNT>
1

> <PUBCHEM_CACTVS_TAUTO_COUNT>
30

> <PUBCHEM_COORDINATE_TYPE>
1
5
255

> <PUBCHEM_BONDANNOTATIONS>
10  17  8
10  21  8
14  15  8
14  17  8
19  23  8
19  24  8
2  27  8
2  35  8
22  26  8
22  27  8
22  32  8
23  28  8
24  29  8
25  28  8
25  29  8
26  31  8
27  33  8
31  34  8
32  35  8
33  34  8
8  15  8
8  21  8

$$$$
3811046
  -OEChem-11021605012D

 49 53  0     1  0  0  0  0  0999 V2000
    5.5443    0.0264    0.0000 S   0  0  0  0  0  0  0  0  0  0  0  0
    9.4758    1.9189    0.0000 O   0  0  0  0  0  0  0  0  0  0  0  0
    7.4067    2.5912    0.0000 O   0  0  0  0  0  0  0  0  0  0  0  0
    9.3712   -1.2512    0.0000 O   0  0  0  0  0  0  0  0  0  0  0  0
   10.5972    1.1282    0.0000 O   0  0  0  0  0  0  0  0  0  0  0  0
    7.1279    0.8311    0.0000 N   0  0  0  0  0  0  0  0  0  0  0  0
    5.5443    1.6358    0.0000 N   0  0  0  0  0  0  0  0  0  0  0  0
    7.7157    0.0221    0.0000 C   0  0  3  0  0  0  0  0  0  0  0  0
    8.6668    0.3311    0.0000 C   0  0  0  0  0  0  0  0  0  0  0  0
    7.4067   -0.9290    0.0000 C   0  0  0  0  0  0  0  0  0  0  0  0
    7.7157    1.6401    0.0000 C   0  0  0  0  0  0  0  0  0  0  0  0
    8.6668    1.3311    0.0000 C   0  0  0  0  0  0  0  0  0  0  0  0
    6.1279    0.8311    0.0000 C   0  0  0  0  0  0  0  0  0  0  0  0
    9.4758   -0.2567    0.0000 C   0  0  0  0  0  0  0  0  0  0  0  0
    4.5981    1.3311    0.0000 C   0  0  0  0  0  0  0  0  0  0  0  0
    4.5981    0.3311    0.0000 C   0  0  0  0  0  0  0  0  0  0  0  0
    6.4285   -1.1369    0.0000 C   0  0  0  0  0  0  0  0  0  0  0  0
    8.0758   -1.6721    0.0000 C   0  0  0  0  0  0  0  0  0  0  0  0
    3.7320    1.8311    0.0000 C   0  0  0  0  0  0  0  0  0  0  0  0
    3.7320   -0.1689    0.0000 C   0  0  0  0  0  0  0  0  0  0  0  0
   10.3893    0.1500    0.0000 C   0  0  0  0  0  0  0  0  0  0  0  0
    2.8660    0.3311    0.0000 C   0  0  0  0  0  0  0  0  0  0  0  0
    2.8660    1.3311    0.0000 C   0  0  0  0  0  0  0  0  0  0  0  0
    6.1195   -2.0880    0.0000 C   0  0  0  0  0  0  0  0  0  0  0  0
    7.7668   -2.6232    0.0000 C   0  0  0  0  0  0  0  0  0  0  0  0
    6.7886   -2.8311    0.0000 C   0  0  0  0  0  0  0  0  0  0  0  0
    3.7320    2.8311    0.0000 C   0  0  0  0  0  0  0  0  0  0  0  0
   11.2553   -0.3500    0.0000 C   0  0  0  0  0  0  0  0  0  0  0  0
    2.0000   -0.1689    0.0000 C   0  0  0  0  0  0  0  0  0  0  0  0
   11.9985    0.3192    0.0000 C   0  0  0  0  0  0  0  0  0  0  0  0
   11.5917    1.2327    0.0000 C   0  0  0  0  0  0  0  0  0  0  0  0
    7.1033   -0.0749    0.0000 H   0  0  0  0  0  0  0  0  0  0  0  0
    6.0137   -0.6761    0.0000 H   0  0  0  0  0  0  0  0  0  0  0  0
    8.6822   -1.5432    0.0000 H   0  0  0  0  0  0  0  0  0  0  0  0
    3.7320   -0.7889    0.0000 H   0  0  0  0  0  0  0  0  0  0  0  0
    2.3291    1.6411    0.0000 H   0  0  0  0  0  0  0  0  0  0  0  0
    5.5131   -2.2168    0.0000 H   0  0  0  0  0  0  0  0  0  0  0  0
    8.1816   -3.0839    0.0000 H   0  0  0  0  0  0  0  0  0  0  0  0
    9.4110    2.5355    0.0000 H   0  0  0  0  0  0  0  0  0  0  0  0
    6.5970   -3.4208    0.0000 H   0  0  0  0  0  0  0  0  0  0  0  0
    4.3520    2.8311    0.0000 H   0  0  0  0  0  0  0  0  0  0  0  0
    3.7320    3.4511    0.0000 H   0  0  0  0  0  0  0  0  0  0  0  0
    3.1120    2.8311    0.0000 H   0  0  0  0  0  0  0  0  0  0  0  0
   11.3201   -0.9666    0.0000 H   0  0  0  0  0  0  0  0  0  0  0  0
    1.6900    0.3680    0.0000 H   0  0  0  0  0  0  0  0  0  0  0  0
    1.4631   -0.4789    0.0000 H   0  0  0  0  0  0  0  0  0  0  0  0
    2.3100   -0.7058    0.0000 H   0  0  0  0  0  0  0  0  0  0  0  0
   12.6049    0.1903    0.0000 H   0  0  0  0  0  0  0  0  0  0  0  0
   11.9017    1.7697    0.0000 H   0  0  0  0  0  0  0  0  0  0  0  0
  1 13  1  0  0  0  0
  1 16  1  0  0  0  0
  2 12  1  0  0  0  0
  2 39  1  0  0  0  0
  3 11  2  0  0  0  0
  4 14  2  0  0  0  0
  5 21  1  0  0  0  0
  5 31  1  0  0  0  0
  6  8  1  0  0  0  0
  6 11  1  0  0  0  0
  6 13  1  0  0  0  0
  7 13  2  0  0  0  0
  7 15  1  0  0  0  0
  8  9  1  0  0  0  0
  8 10  1  0  0  0  0
  8 32  1  0  0  0  0
  9 12  2  0  0  0  0
  9 14  1  0  0  0  0
 10 17  2  0  0  0  0
 10 18  1  0  0  0  0
 11 12  1  0  0  0  0
 14 21  1  0  0  0  0
 15 16  1  0  0  0  0
 15 19  2  0  0  0  0
 16 20  2  0  0  0  0
 17 24  1  0  0  0  0
 17 33  1  0  0  0  0
 18 25  2  0  0  0  0
 18 34  1  0  0  0  0
 19 23  1  0  0  0  0
 19 27  1  0  0  0  0
 20 22  1  0  0  0  0
 20 35  1  0  0  0  0
 21 28  2  0  0  0  0
 22 23  2  0  0  0  0
 22 29  1  0  0  0  0
 23 36  1  0  0  0  0
 24 26  2  0  0  0  0
 24 37  1  0  0  0  0
 25 26  1  0  0  0  0
 25 38  1  0  0  0  0
 26 40  1  0  0  0  0
 27 41  1  0  0  0  0
 27 42  1  0  0  0  0
 27 43  1  0  0  0  0
 28 30  1  0  0  0  0
 28 44  1  0  0  0  0
 29 45  1  0  0  0  0
 29 46  1  0  0  0  0
 29 47  1  0  0  0  0
 30 31  2  0  0  0  0
 30 48  1  0  0  0  0
 31 49  1  0  0  0  0
M  END
> <PUBCHEM_COMPOUND_CID>
3811046

> <PUBCHEM_COMPOUND_CANONICALIZED>
1

> <PUBCHEM_CACTVS_COMPLEXITY>
765

> <PUBCHEM_CACTVS_HBOND_ACCEPTOR>
6

> <PUBCHEM_CACTVS_HBOND_DONOR>
1

> <PUBCHEM_CACTVS_ROTATABLE_BOND>
4

> <PUBCHEM_CACTVS_SUBSKEYS>
AAADceB7OABAAAAAAAAAAAAAAAAAAWJEAAAwYAAAAAAAAFgB/AAAHgQACAAADCzh3gYz1bMIFkisA61y9AKD+KllKDhJmD1uTNiOJrrkvZ+GOSjsxxPY6ae8zvCuCAACgAACAQAQAAUAAAQCAAAAAAAAAA==

> <PUBCHEM_IUPAC_OPENEYE_NAME>
1-(4,6-dimethyl-1,3-benzothiazol-2-yl)-3-(furan-2-carbonyl)-4-hydroxy-2-phenyl-2H-pyrrol-5-one

> <PUBCHEM_IUPAC_CAS_NAME>
1-(4,6-dimethyl-1,3-benzothiazol-2-yl)-3-[2-furanyl(oxo)methyl]-4-hydroxy-2-phenyl-2H-pyrrol-5-one

> <PUBCHEM_IUPAC_NAME>
1-(4,6-dimethyl-1,3-benzothiazol-2-yl)-3-(furan-2-carbonyl)-4-hydroxy-2-phenyl-2H-pyrrol-5-one

> <PUBCHEM_IUPAC_SYSTEMATIC_NAME>
1-(4,6-dimethyl-1,3-benzothiazol-2-yl)-3-(furan-2-ylcarbonyl)-4-oxidanyl-2-phenyl-2H-pyrrol-5-one

> <PUBCHEM_IUPAC_TRADITIONAL_NAME>
1-(4,6-dimethyl-1,3-benzothiazol-2-yl)-4-(2-furoyl)-3-hydroxy-5-phenyl-3-pyrrolin-2-one

> <PUBCHEM_IUPAC_INCHI>
InChI=1S/C24H18N2O4S/c1-13-11-14(2)19-17(12-13)31-24(25-19)26-20(15-7-4-3-5-8-15)18(22(28)23(26)29)21(27)16-9-6-10-30-16/h3-12,20,28H,1-2H3

> <PUBCHEM_IUPAC_INCHIKEY>
FZEOTGVBCDNKDA-UHFFFAOYSA-N

> <PUBCHEM_XLOGP3_AA>
5.5

> <PUBCHEM_EXACT_MASS>
430.099

> <PUBCHEM_MOLECULAR_FORMULA>
C24H18N2O4S

> <PUBCHEM_MOLECULAR_WEIGHT>
430.478

> <PUBCHEM_OPENEYE_CAN_SMILES>
CC1=CC(=C2C(=C1)SC(=N2)N3C(C(=C(C3=O)O)C(=O)C4=CC=CO4)C5=CC=CC=C5)C

> <PUBCHEM_OPENEYE_ISO_SMILES>
CC1=CC(=C2C(=C1)SC(=N2)N3C(C(=C(C3=O)O)C(=O)C4=CC=CO4)C5=CC=CC=C5)C

> <PUBCHEM_CACTVS_TPSA>
112

> <PUBCHEM_MONOISOTOPIC_WEIGHT>
430.099

> <PUBCHEM_TOTAL_CHARGE>
0

> <PUBCHEM_HEAVY_ATOM_COUNT>
31

> <PUBCHEM_ATOM_DEF_STEREO_COUNT>
0

> <PUBCHEM_ATOM_UDEF_STEREO_COUNT>
1

> <PUBCHEM_BOND_DEF_STEREO_COUNT>
0

> <PUBCHEM_BOND_UDEF_STEREO_COUNT>
0

> <PUBCHEM_ISOTOPIC_ATOM_COUNT>
0

> <PUBCHEM_COMPONENT_COUNT>
1

> <PUBCHEM_CACTVS_TAUTO_COUNT>
3

> <PUBCHEM_COORDINATE_TYPE>
1
5
255

> <PUBCHEM_BONDANNOTATIONS>
1  13  8
1  16  8
10  17  8
10  18  8
15  16  8
15  19  8
16  20  8
17  24  8
18  25  8
19  23  8
20  22  8
21  28  8
22  23  8
24  26  8
25  26  8
28  30  8
30  31  8
5  21  8
5  31  8
7  13  8
7  15  8
8  10  3

$$$$
44181414
  -OEChem-11021605012D

 28 31  0     0  0  0  0  0  0999 V2000
    3.4053    0.7515    0.0000 O   0  0  0  0  0  0  0  0  0  0  0  0
    6.2619   -1.8085    0.0000 O   0  0  0  0  0  0  0  0  0  0  0  0
    5.9352    0.2515    0.0000 N   0  0  0  0  0  0  0  0  0  0  0  0
    4.6783   -2.6132    0.0000 N   0  0  0  0  0  0  0  0  0  0  0  0
    2.8660   -2.8085    0.0000 N   0  0  0  0  0  0  0  0  0  0  0  0
    6.6838    1.9134    0.0000 N   0  0  0  0  0  0  0  0  0  0  0  0
    4.6783   -1.0038    0.0000 C   0  0  0  0  0  0  0  0  0  0  0  0
    4.9889   -0.0533    0.0000 C   0  0  0  0  0  0  0  0  0  0  0  0
    3.7320   -1.3085    0.0000 C   0  0  0  0  0  0  0  0  0  0  0  0
    4.9889    1.5562    0.0000 C   0  0  0  0  0  0  0  0  0  0  0  0
    4.4053    0.7515    0.0000 C   0  0  0  0  0  0  0  0  0  0  0  0
    3.7320   -2.3085    0.0000 C   0  0  0  0  0  0  0  0  0  0  0  0
    5.9394    1.2456    0.0000 C   0  0  0  0  0  0  0  0  0  0  0  0
    5.2619   -1.8085    0.0000 C   0  0  0  0  0  0  0  0  0  0  0  0
    2.8660   -0.8085    0.0000 C   0  0  0  0  0  0  0  0  0  0  0  0
    4.7827    2.5347    0.0000 C   0  0  0  0  0  0  0  0  0  0  0  0
    2.0000   -1.3085    0.0000 C   0  0  0  0  0  0  0  0  0  0  0  0
    5.5270    3.2026    0.0000 C   0  0  0  0  0  0  0  0  0  0  0  0
    2.0000   -2.3085    0.0000 C   0  0  0  0  0  0  0  0  0  0  0  0
    6.4775    2.8919    0.0000 C   0  0  0  0  0  0  0  0  0  0  0  0
    6.4355   -0.1147    0.0000 H   0  0  0  0  0  0  0  0  0  0  0  0
    4.8709   -3.2026    0.0000 H   0  0  0  0  0  0  0  0  0  0  0  0
    2.8660   -0.1885    0.0000 H   0  0  0  0  0  0  0  0  0  0  0  0
    4.1934    2.7273    0.0000 H   0  0  0  0  0  0  0  0  0  0  0  0
    1.4631   -0.9985    0.0000 H   0  0  0  0  0  0  0  0  0  0  0  0
    5.3992    3.8092    0.0000 H   0  0  0  0  0  0  0  0  0  0  0  0
    1.4631   -2.6185    0.0000 H   0  0  0  0  0  0  0  0  0  0  0  0
    6.9390    3.3060    0.0000 H   0  0  0  0  0  0  0  0  0  0  0  0
  1 11  2  0  0  0  0
  2 14  2  0  0  0  0
  3  8  1  0  0  0  0
  3 13  1  0  0  0  0
  3 21  1  0  0  0  0
  4 12  1  0  0  0  0
  4 14  1  0  0  0  0
  4 22  1  0  0  0  0
  5 12  1  0  0  0  0
  5 19  2  0  0  0  0
  6 13  1  0  0  0  0
  6 20  2  0  0  0  0
  7  8  2  0  0  0  0
  7  9  1  0  0  0  0
  7 14  1  0  0  0  0
  8 11  1  0  0  0  0
  9 12  2  0  0  0  0
  9 15  1  0  0  0  0
 10 11  1  0  0  0  0
 10 13  2  0  0  0  0
 10 16  1  0  0  0  0
 15 17  2  0  0  0  0
 15 23  1  0  0  0  0
 16 18  2  0  0  0  0
 16 24  1  0  0  0  0
 17 19  1  0  0  0  0
 17 25  1  0  0  0  0
 18 20  1  0  0  0  0
 18 26  1  0  0  0  0
 19 27  1  0  0  0  0
 20 28  1  0  0  0  0
M  END
> <PUBCHEM_COMPOUND_CID>
44181414

> <PUBCHEM_COMPOUND_CANONICALIZED>
1

> <PUBCHEM_CACTVS_COMPLEXITY>
501

> <PUBCHEM_CACTVS_HBOND_ACCEPTOR>
5

> <PUBCHEM_CACTVS_HBOND_DONOR>
2

> <PUBCHEM_CACTVS_ROTATABLE_BOND>
0

> <PUBCHEM_CACTVS_SUBSKEYS>
AAADccBzsAAAAAAAAAAAAAAAAAAAAWLAAAAsWAAAAAAAAFgB4AAAHgAQAAAADAzBmgQ9sJLIEACoArd3dACCgCk1AiAJ2CG4ZNiIIPrAnbGEIYhohQLIyeccCQAOAAAAAAAAAAAAAAAAAAAAAAAAAAAAAA==

> <PUBCHEM_IUPAC_OPENEYE_NAME>
(3Z)-3-(3-oxo-1H-pyrrolo[2,3-b]pyridin-2-ylidene)-1H-pyrrolo[2,3-b]pyridin-2-one

> <PUBCHEM_IUPAC_CAS_NAME>
(3Z)-3-(3-oxo-1H-pyrrolo[2,3-b]pyridin-2-ylidene)-1H-pyrrolo[2,3-b]pyridin-2-one

> <PUBCHEM_IUPAC_NAME>
(3Z)-3-(3-oxo-1H-pyrrolo[2,3-b]pyridin-2-ylidene)-1H-pyrrolo[2,3-b]pyridin-2-one

> <PUBCHEM_IUPAC_SYSTEMATIC_NAME>
(3Z)-3-(3-oxidanylidene-1H-pyrrolo[2,3-b]pyridin-2-ylidene)-1H-pyrrolo[2,3-b]pyridin-2-one

> <PUBCHEM_IUPAC_TRADITIONAL_NAME>
(3Z)-3-(3-keto-1H-pyrrolo[2,3-b]pyridin-2-ylidene)-1H-pyrrolo[2,3-b]pyridin-2-one

> <PUBCHEM_IUPAC_INCHI>
InChI=1S/C14H8N4O2/c19-11-8-4-2-6-16-13(8)17-10(11)9-7-3-1-5-15-12(7)18-14(9)20/h1-6H,(H,16,17)(H,15,18,20)/b10-9-

> <PUBCHEM_IUPAC_INCHIKEY>
OHHPMLZAKKJNOQ-KTKRTIGZSA-N

> <PUBCHEM_XLOGP3_AA>
0.8

> <PUBCHEM_EXACT_MASS>
264.065

> <PUBCHEM_MOLECULAR_FORMULA>
C14H8N4O2

> <PUBCHEM_MOLECULAR_WEIGHT>
264.244

> <PUBCHEM_OPENEYE_CAN_SMILES>
C1=CC2=C(NC(=O)C2=C3C(=O)C4=C(N3)N=CC=C4)N=C1

> <PUBCHEM_OPENEYE_ISO_SMILES>
C1=CC\2=C(NC(=O)/C2=C\3/C(=O)C4=C(N3)N=CC=C4)N=C1

> <PUBCHEM_CACTVS_TPSA>
84

> <PUBCHEM_MONOISOTOPIC_WEIGHT>
264.065

> <PUBCHEM_TOTAL_CHARGE>
0

> <PUBCHEM_HEAVY_ATOM_COUNT>
20

> <PUBCHEM_ATOM_DEF_STEREO_COUNT>
0

> <PUBCHEM_ATOM_UDEF_STEREO_COUNT>
0

> <PUBCHEM_BOND_DEF_STEREO_COUNT>
1

> <PUBCHEM_BOND_UDEF_STEREO_COUNT>
0

> <PUBCHEM_ISOTOPIC_ATOM_COUNT>
0

> <PUBCHEM_COMPONENT_COUNT>
1

> <PUBCHEM_CACTVS_TAUTO_COUNT>
48

> <PUBCHEM_COORDINATE_TYPE>
1
5
255

> <PUBCHEM_BONDANNOTATIONS>
10  13  8
10  16  8
15  17  8
16  18  8
17  19  8
18  20  8
5  12  8
5  19  8
6  13  8
6  20  8
9  12  8
9  15  8

$$$$
733565
  -OEChem-11021605012D

 36 39  0     0  0  0  0  0  0999 V2000
    6.4103   -2.9597    0.0000 S   0  0  0  0  0  0  0  0  0  0  0  0
    2.8660    2.8450    0.0000 O   0  0  0  0  0  0  0  0  0  0  0  0
    4.5981   -0.1550    0.0000 N   0  0  0  0  0  0  0  0  0  0  0  0
    3.7320   -1.6550    0.0000 N   0  0  0  0  0  0  0  0  0  0  0  0
    4.5981   -3.1550    0.0000 N   0  0  0  0  0  0  0  0  0  0  0  0
    5.4641   -1.6550    0.0000 C   0  0  0  0  0  0  0  0  0  0  0  0
    6.4103   -1.3503    0.0000 C   0  0  0  0  0  0  0  0  0  0  0  0
    4.5981   -1.1550    0.0000 C   0  0  0  0  0  0  0  0  0  0  0  0
    6.7210   -0.3997    0.0000 C   0  0  0  0  0  0  0  0  0  0  0  0
    5.4641   -2.6550    0.0000 C   0  0  0  0  0  0  0  0  0  0  0  0
    6.9939   -2.1550    0.0000 C   0  0  0  0  0  0  0  0  0  0  0  0
    3.7320    0.3450    0.0000 C   0  0  0  0  0  0  0  0  0  0  0  0
    6.0531    0.3446    0.0000 C   0  0  0  0  0  0  0  0  0  0  0  0
    7.6995   -0.1935    0.0000 C   0  0  0  0  0  0  0  0  0  0  0  0
    3.7320    1.3450    0.0000 C   0  0  0  0  0  0  0  0  0  0  0  0
    3.7320   -2.6550    0.0000 C   0  0  0  0  0  0  0  0  0  0  0  0
    2.8660   -0.1550    0.0000 C   0  0  0  0  0  0  0  0  0  0  0  0
    6.3638    1.2951    0.0000 C   0  0  0  0  0  0  0  0  0  0  0  0
    8.0102    0.7570    0.0000 C   0  0  0  0  0  0  0  0  0  0  0  0
    7.3423    1.5013    0.0000 C   0  0  0  0  0  0  0  0  0  0  0  0
    2.8660    1.8450    0.0000 C   0  0  0  0  0  0  0  0  0  0  0  0
    2.0000    0.3450    0.0000 C   0  0  0  0  0  0  0  0  0  0  0  0
    2.0000    1.3450    0.0000 C   0  0  0  0  0  0  0  0  0  0  0  0
    7.6139   -2.1550    0.0000 H   0  0  0  0  0  0  0  0  0  0  0  0
    5.1350    0.1550    0.0000 H   0  0  0  0  0  0  0  0  0  0  0  0
    5.4465    0.2167    0.0000 H   0  0  0  0  0  0  0  0  0  0  0  0
    8.1136   -0.6550    0.0000 H   0  0  0  0  0  0  0  0  0  0  0  0
    4.2690    1.6550    0.0000 H   0  0  0  0  0  0  0  0  0  0  0  0
    2.8660   -0.7750    0.0000 H   0  0  0  0  0  0  0  0  0  0  0  0
    3.1951   -2.9650    0.0000 H   0  0  0  0  0  0  0  0  0  0  0  0
    5.9497    1.7565    0.0000 H   0  0  0  0  0  0  0  0  0  0  0  0
    8.6168    0.8848    0.0000 H   0  0  0  0  0  0  0  0  0  0  0  0
    7.5349    2.0906    0.0000 H   0  0  0  0  0  0  0  0  0  0  0  0
    1.4631    0.0350    0.0000 H   0  0  0  0  0  0  0  0  0  0  0  0
    1.4631    1.6550    0.0000 H   0  0  0  0  0  0  0  0  0  0  0  0
    2.3291    3.1550    0.0000 H   0  0  0  0  0  0  0  0  0  0  0  0
  1 10  1  0  0  0  0
  1 11  1  0  0  0  0
  2 21  1  0  0  0  0
  2 36  1  0  0  0  0
  3  8  1  0  0  0  0
  3 12  1  0  0  0  0
  3 25  1  0  0  0  0
  4  8  1  0  0  0  0
  4 16  2  0  0  0  0
  5 10  2  0  0  0  0
  5 16  1  0  0  0  0
  6  7  1  0  0  0  0
  6  8  2  0  0  0  0
  6 10  1  0  0  0  0
  7  9  1  0  0  0  0
  7 11  2  0  0  0  0
  9 13  2  0  0  0  0
  9 14  1  0  0  0  0
 11 24  1  0  0  0  0
 12 15  2  0  0  0  0
 12 17  1  0  0  0  0
 13 18  1  0  0  0  0
 13 26  1  0  0  0  0
 14 19  2  0  0  0  0
 14 27  1  0  0  0  0
 15 21  1  0  0  0  0
 15 28  1  0  0  0  0
 16 30  1  0  0  0  0
 17 22  2  0  0  0  0
 17 29  1  0  0  0  0
 18 20  2  0  0  0  0
 18 31  1  0  0  0  0
 19 20  1  0  0  0  0
 19 32  1  0  0  0  0
 20 33  1  0  0  0  0
 21 23  2  0  0  0  0
 22 23  1  0  0  0  0
 22 34  1  0  0  0  0
 23 35  1  0  0  0  0
M  END
> <PUBCHEM_COMPOUND_CID>
733565

> <PUBCHEM_COMPOUND_CANONICALIZED>
1

> <PUBCHEM_CACTVS_COMPLEXITY>
391

> <PUBCHEM_CACTVS_HBOND_ACCEPTOR>
5

> <PUBCHEM_CACTVS_HBOND_DONOR>
2

> <PUBCHEM_CACTVS_ROTATABLE_BOND>
3

> <PUBCHEM_CACTVS_SUBSKEYS>
AAADccB7IABAAAAAAAAAAAAAAAAAASAAAAA8YIAAAAAAAFgB/AAAHgQQCAAADAyF2gS199bIEgikAiZjZACD0KlxKrgJ2DAubJiILmLi2dOEdAxu0Bvo2CeQ0MMOgAAAAgAAAAAAAAAEAAAAAAAAAAAAAA==

> <PUBCHEM_IUPAC_OPENEYE_NAME>
3-[(5-phenylthieno[2,3-d]pyrimidin-4-yl)amino]phenol

> <PUBCHEM_IUPAC_CAS_NAME>
3-[(5-phenyl-4-thieno[2,3-d]pyrimidinyl)amino]phenol

> <PUBCHEM_IUPAC_NAME>
3-[(5-phenylthieno[2,3-d]pyrimidin-4-yl)amino]phenol

> <PUBCHEM_IUPAC_SYSTEMATIC_NAME>
3-[(5-phenylthieno[2,3-d]pyrimidin-4-yl)amino]phenol

> <PUBCHEM_IUPAC_TRADITIONAL_NAME>
3-[(5-phenylthieno[2,3-d]pyrimidin-4-yl)amino]phenol

> <PUBCHEM_IUPAC_INCHI>
InChI=1S/C18H13N3OS/c22-14-8-4-7-13(9-14)21-17-16-15(12-5-2-1-3-6-12)10-23-18(16)20-11-19-17/h1-11,22H,(H,19,20,21)

> <PUBCHEM_IUPAC_INCHIKEY>
FURAZXKONFAWIZ-UHFFFAOYSA-N

> <PUBCHEM_XLOGP3_AA>
4.7

> <PUBCHEM_EXACT_MASS>
319.078

> <PUBCHEM_MOLECULAR_FORMULA>
C18H13N3OS

> <PUBCHEM_MOLECULAR_WEIGHT>
319.382

> <PUBCHEM_OPENEYE_CAN_SMILES>
C1=CC=C(C=C1)C2=CSC3=NC=NC(=C23)NC4=CC(=CC=C4)O

> <PUBCHEM_OPENEYE_ISO_SMILES>
C1=CC=C(C=C1)C2=CSC3=NC=NC(=C23)NC4=CC(=CC=C4)O

> <PUBCHEM_CACTVS_TPSA>
86.3

> <PUBCHEM_MONOISOTOPIC_WEIGHT>
319.078

> <PUBCHEM_TOTAL_CHARGE>
0

> <PUBCHEM_HEAVY_ATOM_COUNT>
23

> <PUBCHEM_ATOM_DEF_STEREO_COUNT>
0

> <PUBCHEM_ATOM_UDEF_STEREO_COUNT>
0

> <PUBCHEM_BOND_DEF_STEREO_COUNT>
0

> <PUBCHEM_BOND_UDEF_STEREO_COUNT>
0

> <PUBCHEM_ISOTOPIC_ATOM_COUNT>
0

> <PUBCHEM_COMPONENT_COUNT>
1

> <PUBCHEM_CACTVS_TAUTO_COUNT>
21

> <PUBCHEM_COORDINATE_TYPE>
1
5
255

> <PUBCHEM_BONDANNOTATIONS>
1  10  8
1  11  8
12  15  8
12  17  8
13  18  8
14  19  8
15  21  8
17  22  8
18  20  8
19  20  8
21  23  8
22  23  8
4  16  8
4  8  8
5  10  8
5  16  8
6  10  8
6  7  8
6  8  8
7  11  8
9  13  8
9  14  8

$$$$
733568
  -OEChem-11021605012D

 36 39  0     0  0  0  0  0  0999 V2000
    6.4103   -2.9597    0.0000 S   0  0  0  0  0  0  0  0  0  0  0  0
    2.8660    2.8450    0.0000 O   0  0  0  0  0  0  0  0  0  0  0  0
    4.5981   -0.1550    0.0000 N   0  0  0  0  0  0  0  0  0  0  0  0
    3.7320   -1.6550    0.0000 N   0  0  0  0  0  0  0  0  0  0  0  0
    4.5981   -3.1550    0.0000 N   0  0  0  0  0  0  0  0  0  0  0  0
    5.4641   -1.6550    0.0000 C   0  0  0  0  0  0  0  0  0  0  0  0
    6.9939   -2.1550    0.0000 C   0  0  0  0  0  0  0  0  0  0  0  0
    6.4103   -1.3503    0.0000 C   0  0  0  0  0  0  0  0  0  0  0  0
    4.5981   -1.1550    0.0000 C   0  0  0  0  0  0  0  0  0  0  0  0
    5.4641   -2.6550    0.0000 C   0  0  0  0  0  0  0  0  0  0  0  0
    7.9939   -2.1550    0.0000 C   0  0  0  0  0  0  0  0  0  0  0  0
    3.7320    0.3450    0.0000 C   0  0  0  0  0  0  0  0  0  0  0  0
    8.4939   -3.0210    0.0000 C   0  0  0  0  0  0  0  0  0  0  0  0
    8.4939   -1.2890    0.0000 C   0  0  0  0  0  0  0  0  0  0  0  0
    3.7320    1.3450    0.0000 C   0  0  0  0  0  0  0  0  0  0  0  0
    2.8660   -0.1550    0.0000 C   0  0  0  0  0  0  0  0  0  0  0  0
    3.7320   -2.6550    0.0000 C   0  0  0  0  0  0  0  0  0  0  0  0
    9.4939   -3.0210    0.0000 C   0  0  0  0  0  0  0  0  0  0  0  0
    9.4939   -1.2890    0.0000 C   0  0  0  0  0  0  0  0  0  0  0  0
    2.8660    1.8450    0.0000 C   0  0  0  0  0  0  0  0  0  0  0  0
    9.9939   -2.1550    0.0000 C   0  0  0  0  0  0  0  0  0  0  0  0
    2.0000    0.3450    0.0000 C   0  0  0  0  0  0  0  0  0  0  0  0
    2.0000    1.3450    0.0000 C   0  0  0  0  0  0  0  0  0  0  0  0
    6.6029   -0.7609    0.0000 H   0  0  0  0  0  0  0  0  0  0  0  0
    5.1350    0.1550    0.0000 H   0  0  0  0  0  0  0  0  0  0  0  0
    8.1839   -3.5580    0.0000 H   0  0  0  0  0  0  0  0  0  0  0  0
    8.1839   -0.7520    0.0000 H   0  0  0  0  0  0  0  0  0  0  0  0
    4.2690    1.6550    0.0000 H   0  0  0  0  0  0  0  0  0  0  0  0
    2.8660   -0.7750    0.0000 H   0  0  0  0  0  0  0  0  0  0  0  0
    3.1951   -2.9650    0.0000 H   0  0  0  0  0  0  0  0  0  0  0  0
    9.8039   -3.5580    0.0000 H   0  0  0  0  0  0  0  0  0  0  0  0
    9.8039   -0.7520    0.0000 H   0  0  0  0  0  0  0  0  0  0  0  0
    1.4631    0.0350    0.0000 H   0  0  0  0  0  0  0  0  0  0  0  0
   10.6139   -2.1550    0.0000 H   0  0  0  0  0  0  0  0  0  0  0  0
    1.4631    1.6550    0.0000 H   0  0  0  0  0  0  0  0  0  0  0  0
    2.3291    3.1550    0.0000 H   0  0  0  0  0  0  0  0  0  0  0  0
  1  7  1  0  0  0  0
  1 10  1  0  0  0  0
  2 20  1  0  0  0  0
  2 36  1  0  0  0  0
  3  9  1  0  0  0  0
  3 12  1  0  0  0  0
  3 25  1  0  0  0  0
  4  9  1  0  0  0  0
  4 17  2  0  0  0  0
  5 10  2  0  0  0  0
  5 17  1  0  0  0  0
  6  8  1  0  0  0  0
  6  9  2  0  0  0  0
  6 10  1  0  0  0  0
  7  8  2  0  0  0  0
  7 11  1  0  0  0  0
  8 24  1  0  0  0  0
 11 13  2  0  0  0  0
 11 14  1  0  0  0  0
 12 15  2  0  0  0  0
 12 16  1  0  0  0  0
 13 18  1  0  0  0  0
 13 26  1  0  0  0  0
 14 19  2  0  0  0  0
 14 27  1  0  0  0  0
 15 20  1  0  0  0  0
 15 28  1  0  0  0  0
 16 22  2  0  0  0  0
 16 29  1  0  0  0  0
 17 30  1  0  0  0  0
 18 21  2  0  0  0  0
 18 31  1  0  0  0  0
 19 21  1  0  0  0  0
 19 32  1  0  0  0  0
 20 23  2  0  0  0  0
 21 34  1  0  0  0  0
 22 23  1  0  0  0  0
 22 33  1  0  0  0  0
 23 35  1  0  0  0  0
M  END
> <PUBCHEM_COMPOUND_CID>
733568

> <PUBCHEM_COMPOUND_CANONICALIZED>
1

> <PUBCHEM_CACTVS_COMPLEXITY>
391

> <PUBCHEM_CACTVS_HBOND_ACCEPTOR>
5

> <PUBCHEM_CACTVS_HBOND_DONOR>
2

> <PUBCHEM_CACTVS_ROTATABLE_BOND>
3

> <PUBCHEM_CACTVS_SUBSKEYS>
AAADccB7IABAAAAAAAAAAAAAAAAAASAAAAA8YIAAAAAAAFgB/AAAHgQQCAAADAyB2gQ199bIEgikAiZjZACD0KlxKrhJ2DgubJiILuLi2dOEdAxu0Bvo2CeQ0MMOAAAAAgAAAAAAAAAEAAAAAAAAAAAAAA==

> <PUBCHEM_IUPAC_OPENEYE_NAME>
3-[(6-phenylthieno[2,3-d]pyrimidin-4-yl)amino]phenol

> <PUBCHEM_IUPAC_CAS_NAME>
3-[(6-phenyl-4-thieno[2,3-d]pyrimidinyl)amino]phenol

> <PUBCHEM_IUPAC_NAME>
3-[(6-phenylthieno[2,3-d]pyrimidin-4-yl)amino]phenol

> <PUBCHEM_IUPAC_SYSTEMATIC_NAME>
3-[(6-phenylthieno[2,3-d]pyrimidin-4-yl)amino]phenol

> <PUBCHEM_IUPAC_TRADITIONAL_NAME>
3-[(6-phenylthieno[2,3-d]pyrimidin-4-yl)amino]phenol

> <PUBCHEM_IUPAC_INCHI>
InChI=1S/C18H13N3OS/c22-14-8-4-7-13(9-14)21-17-15-10-16(12-5-2-1-3-6-12)23-18(15)20-11-19-17/h1-11,22H,(H,19,20,21)

> <PUBCHEM_IUPAC_INCHIKEY>
ARHDHZPSUWKYQE-UHFFFAOYSA-N

> <PUBCHEM_XLOGP3_AA>
4.7

> <PUBCHEM_EXACT_MASS>
319.078

> <PUBCHEM_MOLECULAR_FORMULA>
C18H13N3OS

> <PUBCHEM_MOLECULAR_WEIGHT>
319.382

> <PUBCHEM_OPENEYE_CAN_SMILES>
C1=CC=C(C=C1)C2=CC3=C(N=CN=C3S2)NC4=CC(=CC=C4)O

> <PUBCHEM_OPENEYE_ISO_SMILES>
C1=CC=C(C=C1)C2=CC3=C(N=CN=C3S2)NC4=CC(=CC=C4)O

> <PUBCHEM_CACTVS_TPSA>
86.3

> <PUBCHEM_MONOISOTOPIC_WEIGHT>
319.078

> <PUBCHEM_TOTAL_CHARGE>
0

> <PUBCHEM_HEAVY_ATOM_COUNT>
23

> <PUBCHEM_ATOM_DEF_STEREO_COUNT>
0

> <PUBCHEM_ATOM_UDEF_STEREO_COUNT>
0

> <PUBCHEM_BOND_DEF_STEREO_COUNT>
0

> <PUBCHEM_BOND_UDEF_STEREO_COUNT>
0

> <PUBCHEM_ISOTOPIC_ATOM_COUNT>
0

> <PUBCHEM_COMPONENT_COUNT>
1

> <PUBCHEM_CACTVS_TAUTO_COUNT>
21

> <PUBCHEM_COORDINATE_TYPE>
1
5
255

> <PUBCHEM_BONDANNOTATIONS>
1  10  8
1  7  8
11  13  8
11  14  8
12  15  8
12  16  8
13  18  8
14  19  8
15  20  8
16  22  8
18  21  8
19  21  8
20  23  8
22  23  8
4  17  8
4  9  8
5  10  8
5  17  8
6  10  8
6  8  8
6  9  8
7  8  8

$$$$
6064827
  -OEChem-11021605012D

 37 39  0     0  0  0  0  0  0999 V2000
    4.4727    0.5835    0.0000 S   0  0  0  0  0  0  0  0  0  0  0  0
    5.4432    2.0780    0.0000 S   0  0  0  0  0  0  0  0  0  0  0  0
    2.4435   -3.8858    0.0000 F   0  0  0  0  0  0  0  0  0  0  0  0
    3.3666   -2.2980    0.0000 O   0  0  0  0  0  0  0  0  0  0  0  0
    2.0000    1.3462    0.0000 O   0  0  0  0  0  0  0  0  0  0  0  0
    4.7341    5.2793    0.0000 O   0  0  0  0  0  0  0  0  0  0  0  0
    3.0399    4.9192    0.0000 O   0  0  0  0  0  0  0  0  0  0  0  0
    3.6636    1.9848    0.0000 N   0  0  0  0  0  0  0  0  0  0  0  0
    3.4557    2.9629    0.0000 C   0  0  0  0  0  0  0  0  0  0  0  0
    2.9945    1.2416    0.0000 C   0  0  0  0  0  0  0  0  0  0  0  0
    3.4945    0.3756    0.0000 C   0  0  0  0  0  0  0  0  0  0  0  0
    4.1989    3.6321    0.0000 C   0  0  0  0  0  0  0  0  0  0  0  0
    4.5772    1.5780    0.0000 C   0  0  0  0  0  0  0  0  0  0  0  0
    3.6756   -1.3470    0.0000 C   0  0  0  0  0  0  0  0  0  0  0  0
    3.0878   -0.5379    0.0000 C   0  0  0  0  0  0  0  0  0  0  0  0
    4.1756   -2.8858    0.0000 C   0  0  0  0  0  0  0  0  0  0  0  0
    4.1756   -3.8858    0.0000 C   0  0  0  0  0  0  0  0  0  0  0  0
    4.6756   -1.3470    0.0000 C   0  0  0  0  0  0  0  0  0  0  0  0
    4.9846   -2.2980    0.0000 C   0  0  0  0  0  0  0  0  0  0  0  0
    3.9910    4.6102    0.0000 C   0  0  0  0  0  0  0  0  0  0  0  0
    3.3096   -4.3858    0.0000 C   0  0  0  0  0  0  0  0  0  0  0  0
    5.0416   -4.3858    0.0000 C   0  0  0  0  0  0  0  0  0  0  0  0
    3.3096   -5.3858    0.0000 C   0  0  0  0  0  0  0  0  0  0  0  0
    5.0416   -5.3858    0.0000 C   0  0  0  0  0  0  0  0  0  0  0  0
    4.1756   -5.8858    0.0000 C   0  0  0  0  0  0  0  0  0  0  0  0
    3.1272    3.4887    0.0000 H   0  0  0  0  0  0  0  0  0  0  0  0
    2.8809    2.7307    0.0000 H   0  0  0  0  0  0  0  0  0  0  0  0
    4.5274    3.1063    0.0000 H   0  0  0  0  0  0  0  0  0  0  0  0
    4.7737    3.8643    0.0000 H   0  0  0  0  0  0  0  0  0  0  0  0
    2.4712   -0.6027    0.0000 H   0  0  0  0  0  0  0  0  0  0  0  0
    5.0400   -0.8454    0.0000 H   0  0  0  0  0  0  0  0  0  0  0  0
    5.5742   -2.4896    0.0000 H   0  0  0  0  0  0  0  0  0  0  0  0
    5.5785   -4.0758    0.0000 H   0  0  0  0  0  0  0  0  0  0  0  0
    2.7726   -5.6958    0.0000 H   0  0  0  0  0  0  0  0  0  0  0  0
    5.5785   -5.6958    0.0000 H   0  0  0  0  0  0  0  0  0  0  0  0
    4.1756   -6.5058    0.0000 H   0  0  0  0  0  0  0  0  0  0  0  0
    4.6052    5.8858    0.0000 H   0  0  0  0  0  0  0  0  0  0  0  0
  1 11  1  0  0  0  0
  1 13  1  0  0  0  0
  2 13  2  0  0  0  0
  3 21  1  0  0  0  0
  4 14  1  0  0  0  0
  4 16  1  0  0  0  0
  5 10  2  0  0  0  0
  6 20  1  0  0  0  0
  6 37  1  0  0  0  0
  7 20  2  0  0  0  0
  8  9  1  0  0  0  0
  8 10  1  0  0  0  0
  8 13  1  0  0  0  0
  9 12  1  0  0  0  0
  9 26  1  0  0  0  0
  9 27  1  0  0  0  0
 10 11  1  0  0  0  0
 11 15  2  0  0  0  0
 12 20  1  0  0  0  0
 12 28  1  0  0  0  0
 12 29  1  0  0  0  0
 14 15  1  0  0  0  0
 14 18  2  0  0  0  0
 15 30  1  0  0  0  0
 16 17  1  0  0  0  0
 16 19  2  0  0  0  0
 17 21  1  0  0  0  0
 17 22  2  0  0  0  0
 18 19  1  0  0  0  0
 18 31  1  0  0  0  0
 19 32  1  0  0  0  0
 21 23  2  0  0  0  0
 22 24  1  0  0  0  0
 22 33  1  0  0  0  0
 23 25  1  0  0  0  0
 23 34  1  0  0  0  0
 24 25  2  0  0  0  0
 24 35  1  0  0  0  0
 25 36  1  0  0  0  0
M  END
> <PUBCHEM_COMPOUND_CID>
6064827

> <PUBCHEM_COMPOUND_CANONICALIZED>
1

> <PUBCHEM_CACTVS_COMPLEXITY>
597

> <PUBCHEM_CACTVS_HBOND_ACCEPTOR>
7

> <PUBCHEM_CACTVS_HBOND_DONOR>
1

> <PUBCHEM_CACTVS_ROTATABLE_BOND>
5

> <PUBCHEM_CACTVS_SUBSKEYS>
AAADccB6OQBgAAAAAAAAAAAAAAAAAWJAAAAwAAAAAAAAAAABwAAAHwQACAAADATB2AwwDIMABkiMAqHSGACCCABkIBgIiAEOCMgMJjqENRqGeSCmxhGIqYeIyPCOAAAAAAAAAAAAAAAAAAAAAAAAAAAAAA==

> <PUBCHEM_IUPAC_OPENEYE_NAME>
3-[(5Z)-5-[[5-(2-fluorophenyl)-2-furyl]methylene]-4-oxo-2-thioxo-thiazolidin-3-yl]propanoic acid

> <PUBCHEM_IUPAC_CAS_NAME>
3-[(5Z)-5-[[5-(2-fluorophenyl)-2-furanyl]methylidene]-4-oxo-2-sulfanylidene-3-thiazolidinyl]propanoic acid

> <PUBCHEM_IUPAC_NAME>
3-[(5Z)-5-[[5-(2-fluorophenyl)furan-2-yl]methylidene]-4-oxo-2-sulfanylidene-1,3-thiazolidin-3-yl]propanoic acid

> <PUBCHEM_IUPAC_SYSTEMATIC_NAME>
3-[(5Z)-5-[[5-(2-fluorophenyl)furan-2-yl]methylidene]-4-oxidanylidene-2-sulfanylidene-1,3-thiazolidin-3-yl]propanoic acid

> <PUBCHEM_IUPAC_TRADITIONAL_NAME>
3-[(5Z)-5-[[5-(2-fluorophenyl)-2-furyl]methylene]-4-keto-2-thioxo-thiazolidin-3-yl]propionic acid

> <PUBCHEM_IUPAC_INCHI>
InChI=1S/C17H12FNO4S2/c18-12-4-2-1-3-11(12)13-6-5-10(23-13)9-14-16(22)19(17(24)25-14)8-7-15(20)21/h1-6,9H,7-8H2,(H,20,21)/b14-9-

> <PUBCHEM_IUPAC_INCHIKEY>
XKYOTPNVJLREHV-ZROIWOOFSA-N

> <PUBCHEM_XLOGP3_AA>
3.3

> <PUBCHEM_EXACT_MASS>
377.019

> <PUBCHEM_MOLECULAR_FORMULA>
C17H12FNO4S2

> <PUBCHEM_MOLECULAR_WEIGHT>
377.404

> <PUBCHEM_OPENEYE_CAN_SMILES>
C1=CC=C(C(=C1)C2=CC=C(O2)C=C3C(=O)N(C(=S)S3)CCC(=O)O)F

> <PUBCHEM_OPENEYE_ISO_SMILES>
C1=CC=C(C(=C1)C2=CC=C(O2)/C=C\3/C(=O)N(C(=S)S3)CCC(=O)O)F

> <PUBCHEM_CACTVS_TPSA>
128

> <PUBCHEM_MONOISOTOPIC_WEIGHT>
377.019

> <PUBCHEM_TOTAL_CHARGE>
0

> <PUBCHEM_HEAVY_ATOM_COUNT>
25

> <PUBCHEM_ATOM_DEF_STEREO_COUNT>
0

> <PUBCHEM_ATOM_UDEF_STEREO_COUNT>
0

> <PUBCHEM_BOND_DEF_STEREO_COUNT>
1

> <PUBCHEM_BOND_UDEF_STEREO_COUNT>
0

> <PUBCHEM_ISOTOPIC_ATOM_COUNT>
0

> <PUBCHEM_COMPONENT_COUNT>
1

> <PUBCHEM_CACTVS_TAUTO_COUNT>
1

> <PUBCHEM_COORDINATE_TYPE>
1
5
255

> <PUBCHEM_BONDANNOTATIONS>
14  18  8
16  19  8
17  21  8
17  22  8
18  19  8
21  23  8
22  24  8
23  25  8
24  25  8
4  14  8
4  16  8

$$$$
1351628
  -OEChem-11021605012D

 40 42  0     0  0  0  0  0  0999 V2000
    3.5096   -6.7791    0.0000 Br  0  0  0  0  0  0  0  0  0  0  0  0
    3.2125    0.6902    0.0000 S   0  0  0  0  0  0  0  0  0  0  0  0
    2.2420    2.1848    0.0000 S   0  0  0  0  0  0  0  0  0  0  0  0
    4.3186   -2.1913    0.0000 O   0  0  0  0  0  0  0  0  0  0  0  0
    5.6852    1.4529    0.0000 O   0  0  0  0  0  0  0  0  0  0  0  0
    3.1590    6.3642    0.0000 O   0  0  0  0  0  0  0  0  0  0  0  0
    2.0000    5.0770    0.0000 O   0  0  0  0  0  0  0  0  0  0  0  0
    4.0215    2.0915    0.0000 N   0  0  0  0  0  0  0  0  0  0  0  0
    4.2294    3.0697    0.0000 C   0  0  0  0  0  0  0  0  0  0  0  0
    3.4863    3.7388    0.0000 C   0  0  0  0  0  0  0  0  0  0  0  0
    3.6942    4.7169    0.0000 C   0  0  0  0  0  0  0  0  0  0  0  0
    4.6906    1.3484    0.0000 C   0  0  0  0  0  0  0  0  0  0  0  0
    4.1906    0.4823    0.0000 C   0  0  0  0  0  0  0  0  0  0  0  0
    3.1080    1.6848    0.0000 C   0  0  0  0  0  0  0  0  0  0  0  0
    4.5974   -0.4312    0.0000 C   0  0  0  0  0  0  0  0  0  0  0  0
    4.0096   -1.2402    0.0000 C   0  0  0  0  0  0  0  0  0  0  0  0
    3.5096   -2.7791    0.0000 C   0  0  0  0  0  0  0  0  0  0  0  0
    2.9511    5.3861    0.0000 C   0  0  0  0  0  0  0  0  0  0  0  0
    3.0096   -1.2402    0.0000 C   0  0  0  0  0  0  0  0  0  0  0  0
    3.5096   -3.7791    0.0000 C   0  0  0  0  0  0  0  0  0  0  0  0
    2.7006   -2.1913    0.0000 C   0  0  0  0  0  0  0  0  0  0  0  0
    2.6436   -4.2791    0.0000 C   0  0  0  0  0  0  0  0  0  0  0  0
    4.3756   -4.2791    0.0000 C   0  0  0  0  0  0  0  0  0  0  0  0
    2.6436   -5.2791    0.0000 C   0  0  0  0  0  0  0  0  0  0  0  0
    4.3756   -5.2791    0.0000 C   0  0  0  0  0  0  0  0  0  0  0  0
    3.5096   -5.7791    0.0000 C   0  0  0  0  0  0  0  0  0  0  0  0
    4.8043    2.8374    0.0000 H   0  0  0  0  0  0  0  0  0  0  0  0
    4.5580    3.5954    0.0000 H   0  0  0  0  0  0  0  0  0  0  0  0
    2.9114    3.9710    0.0000 H   0  0  0  0  0  0  0  0  0  0  0  0
    3.1577    3.2130    0.0000 H   0  0  0  0  0  0  0  0  0  0  0  0
    4.2691    4.4847    0.0000 H   0  0  0  0  0  0  0  0  0  0  0  0
    4.0228    5.2427    0.0000 H   0  0  0  0  0  0  0  0  0  0  0  0
    5.2140   -0.4960    0.0000 H   0  0  0  0  0  0  0  0  0  0  0  0
    2.6452   -0.7386    0.0000 H   0  0  0  0  0  0  0  0  0  0  0  0
    2.1109   -2.3829    0.0000 H   0  0  0  0  0  0  0  0  0  0  0  0
    2.1066   -3.9691    0.0000 H   0  0  0  0  0  0  0  0  0  0  0  0
    4.9126   -3.9691    0.0000 H   0  0  0  0  0  0  0  0  0  0  0  0
    2.1066   -5.5891    0.0000 H   0  0  0  0  0  0  0  0  0  0  0  0
    4.9126   -5.5891    0.0000 H   0  0  0  0  0  0  0  0  0  0  0  0
    2.6982    6.7791    0.0000 H   0  0  0  0  0  0  0  0  0  0  0  0
  1 26  1  0  0  0  0
  2 13  1  0  0  0  0
  2 14  1  0  0  0  0
  3 14  2  0  0  0  0
  4 16  1  0  0  0  0
  4 17  1  0  0  0  0
  5 12  2  0  0  0  0
  6 18  1  0  0  0  0
  6 40  1  0  0  0  0
  7 18  2  0  0  0  0
  8  9  1  0  0  0  0
  8 12  1  0  0  0  0
  8 14  1  0  0  0  0
  9 10  1  0  0  0  0
  9 27  1  0  0  0  0
  9 28  1  0  0  0  0
 10 11  1  0  0  0  0
 10 29  1  0  0  0  0
 10 30  1  0  0  0  0
 11 18  1  0  0  0  0
 11 31  1  0  0  0  0
 11 32  1  0  0  0  0
 12 13  1  0  0  0  0
 13 15  2  0  0  0  0
 15 16  1  0  0  0  0
 15 33  1  0  0  0  0
 16 19  2  0  0  0  0
 17 20  1  0  0  0  0
 17 21  2  0  0  0  0
 19 21  1  0  0  0  0
 19 34  1  0  0  0  0
 20 22  2  0  0  0  0
 20 23  1  0  0  0  0
 21 35  1  0  0  0  0
 22 24  1  0  0  0  0
 22 36  1  0  0  0  0
 23 25  2  0  0  0  0
 23 37  1  0  0  0  0
 24 26  2  0  0  0  0
 24 38  1  0  0  0  0
 25 26  1  0  0  0  0
 25 39  1  0  0  0  0
M  END
> <PUBCHEM_COMPOUND_CID>
1351628

> <PUBCHEM_COMPOUND_CANONICALIZED>
1

> <PUBCHEM_CACTVS_COMPLEXITY>
604

> <PUBCHEM_CACTVS_HBOND_ACCEPTOR>
6

> <PUBCHEM_CACTVS_HBOND_DONOR>
1

> <PUBCHEM_CACTVS_ROTATABLE_BOND>
6

> <PUBCHEM_CACTVS_SUBSKEYS>
AAADccB6OABgEAAAAAAAAAAAAAAAAWJAAAAwAAAAAAAAAAABwAAAHgRACAABrATB2AQwDIMABkiMAqHSGACCCABkIBwIiAEOCOgMJjKEtRqGeSCkxhGIq5esyPCOAgAAAAAAAAAEAAAAAAAAAAAAAAAAAA==

> <PUBCHEM_IUPAC_OPENEYE_NAME>
4-[(5Z)-5-[[5-(4-bromophenyl)-2-furyl]methylene]-4-oxo-2-thioxo-thiazolidin-3-yl]butanoic acid

> <PUBCHEM_IUPAC_CAS_NAME>
4-[(5Z)-5-[[5-(4-bromophenyl)-2-furanyl]methylidene]-4-oxo-2-sulfanylidene-3-thiazolidinyl]butanoic acid

> <PUBCHEM_IUPAC_NAME>
4-[(5Z)-5-[[5-(4-bromophenyl)furan-2-yl]methylidene]-4-oxo-2-sulfanylidene-1,3-thiazolidin-3-yl]butanoic acid

> <PUBCHEM_IUPAC_SYSTEMATIC_NAME>
4-[(5Z)-5-[[5-(4-bromophenyl)furan-2-yl]methylidene]-4-oxidanylidene-2-sulfanylidene-1,3-thiazolidin-3-yl]butanoic acid

> <PUBCHEM_IUPAC_TRADITIONAL_NAME>
4-[(5Z)-5-[[5-(4-bromophenyl)-2-furyl]methylene]-4-keto-2-thioxo-thiazolidin-3-yl]butyric acid

> <PUBCHEM_IUPAC_INCHI>
InChI=1S/C18H14BrNO4S2/c19-12-5-3-11(4-6-12)14-8-7-13(24-14)10-15-17(23)20(18(25)26-15)9-1-2-16(21)22/h3-8,10H,1-2,9H2,(H,21,22)/b15-10-

> <PUBCHEM_IUPAC_INCHIKEY>
VOZLCCPWWFCIQS-GDNBJRDFSA-N

> <PUBCHEM_XLOGP3_AA>
4.3

> <PUBCHEM_EXACT_MASS>
450.955

> <PUBCHEM_MOLECULAR_FORMULA>
C18H14BrNO4S2

> <PUBCHEM_MOLECULAR_WEIGHT>
452.337

> <PUBCHEM_OPENEYE_CAN_SMILES>
C1=CC(=CC=C1C2=CC=C(O2)C=C3C(=O)N(C(=S)S3)CCCC(=O)O)Br

> <PUBCHEM_OPENEYE_ISO_SMILES>
C1=CC(=CC=C1C2=CC=C(O2)/C=C\3/C(=O)N(C(=S)S3)CCCC(=O)O)Br

> <PUBCHEM_CACTVS_TPSA>
128

> <PUBCHEM_MONOISOTOPIC_WEIGHT>
450.955

> <PUBCHEM_TOTAL_CHARGE>
0

> <PUBCHEM_HEAVY_ATOM_COUNT>
26

> <PUBCHEM_ATOM_DEF_STEREO_COUNT>
0

> <PUBCHEM_ATOM_UDEF_STEREO_COUNT>
0

> <PUBCHEM_BOND_DEF_STEREO_COUNT>
1

> <PUBCHEM_BOND_UDEF_STEREO_COUNT>
0

> <PUBCHEM_ISOTOPIC_ATOM_COUNT>
0

> <PUBCHEM_COMPONENT_COUNT>
1

> <PUBCHEM_CACTVS_TAUTO_COUNT>
1

> <PUBCHEM_COORDINATE_TYPE>
1
5
255

> <PUBCHEM_BONDANNOTATIONS>
16  19  8
17  21  8
19  21  8
20  22  8
20  23  8
22  24  8
23  25  8
24  26  8
25  26  8
4  16  8
4  17  8

$$$$
6509439
  -OEChem-11021605012D

 37 39  0     1  0  0  0  0  0999 V2000
    2.0000   -4.9554    0.0000 Cl  0  0  0  0  0  0  0  0  0  0  0  0
    3.7320   -5.9554    0.0000 Cl  0  0  0  0  0  0  0  0  0  0  0  0
    3.4350    1.5139    0.0000 S   0  0  0  0  0  0  0  0  0  0  0  0
    2.4644    3.0084    0.0000 S   0  0  0  0  0  0  0  0  0  0  0  0
    4.5411   -1.3676    0.0000 O   0  0  0  0  0  0  0  0  0  0  0  0
    5.9076    2.2765    0.0000 O   0  0  0  0  0  0  0  0  0  0  0  0
    3.9166    5.5406    0.0000 O   0  0  0  0  0  0  0  0  0  0  0  0
    2.7577    4.2534    0.0000 O   0  0  0  0  0  0  0  0  0  0  0  0
    4.2440    2.9151    0.0000 N   0  0  0  0  0  0  0  0  0  0  0  0
    4.4519    3.8933    0.0000 C   0  0  3  0  0  0  0  0  0  0  0  0
    4.9131    2.1720    0.0000 C   0  0  0  0  0  0  0  0  0  0  0  0
    4.4131    1.3060    0.0000 C   0  0  0  0  0  0  0  0  0  0  0  0
    5.4029    4.2023    0.0000 C   0  0  0  0  0  0  0  0  0  0  0  0
    3.3304    2.5084    0.0000 C   0  0  0  0  0  0  0  0  0  0  0  0
    4.8198    0.3924    0.0000 C   0  0  0  0  0  0  0  0  0  0  0  0
    4.2320   -0.4166    0.0000 C   0  0  0  0  0  0  0  0  0  0  0  0
    3.7087    4.5624    0.0000 C   0  0  0  0  0  0  0  0  0  0  0  0
    3.7320   -1.9554    0.0000 C   0  0  0  0  0  0  0  0  0  0  0  0
    3.7320   -2.9554    0.0000 C   0  0  0  0  0  0  0  0  0  0  0  0
    3.2320   -0.4166    0.0000 C   0  0  0  0  0  0  0  0  0  0  0  0
    2.9230   -1.3676    0.0000 C   0  0  0  0  0  0  0  0  0  0  0  0
    2.8660   -3.4554    0.0000 C   0  0  0  0  0  0  0  0  0  0  0  0
    4.5981   -3.4554    0.0000 C   0  0  0  0  0  0  0  0  0  0  0  0
    2.8660   -4.4554    0.0000 C   0  0  0  0  0  0  0  0  0  0  0  0
    4.5981   -4.4554    0.0000 C   0  0  0  0  0  0  0  0  0  0  0  0
    3.7320   -4.9554    0.0000 C   0  0  0  0  0  0  0  0  0  0  0  0
    5.0836    3.3245    0.0000 H   0  0  0  0  0  0  0  0  0  0  0  0
    5.5945    3.6126    0.0000 H   0  0  0  0  0  0  0  0  0  0  0  0
    5.9926    4.3939    0.0000 H   0  0  0  0  0  0  0  0  0  0  0  0
    5.2114    4.7920    0.0000 H   0  0  0  0  0  0  0  0  0  0  0  0
    5.4364    0.3276    0.0000 H   0  0  0  0  0  0  0  0  0  0  0  0
    2.8676    0.0850    0.0000 H   0  0  0  0  0  0  0  0  0  0  0  0
    2.3334   -1.5592    0.0000 H   0  0  0  0  0  0  0  0  0  0  0  0
    2.3291   -3.1454    0.0000 H   0  0  0  0  0  0  0  0  0  0  0  0
    5.1350   -3.1454    0.0000 H   0  0  0  0  0  0  0  0  0  0  0  0
    5.1350   -4.7654    0.0000 H   0  0  0  0  0  0  0  0  0  0  0  0
    3.4559    5.9554    0.0000 H   0  0  0  0  0  0  0  0  0  0  0  0
  1 24  1  0  0  0  0
  2 26  1  0  0  0  0
  3 12  1  0  0  0  0
  3 14  1  0  0  0  0
  4 14  2  0  0  0  0
  5 16  1  0  0  0  0
  5 18  1  0  0  0  0
  6 11  2  0  0  0  0
  7 17  1  0  0  0  0
  7 37  1  0  0  0  0
  8 17  2  0  0  0  0
  9 10  1  0  0  0  0
  9 11  1  0  0  0  0
  9 14  1  0  0  0  0
 10 13  1  0  0  0  0
 10 17  1  0  0  0  0
 10 27  1  0  0  0  0
 11 12  1  0  0  0  0
 12 15  2  0  0  0  0
 13 28  1  0  0  0  0
 13 29  1  0  0  0  0
 13 30  1  0  0  0  0
 15 16  1  0  0  0  0
 15 31  1  0  0  0  0
 16 20  2  0  0  0  0
 18 19  1  0  0  0  0
 18 21  2  0  0  0  0
 19 22  2  0  0  0  0
 19 23  1  0  0  0  0
 20 21  1  0  0  0  0
 20 32  1  0  0  0  0
 21 33  1  0  0  0  0
 22 24  1  0  0  0  0
 22 34  1  0  0  0  0
 23 25  2  0  0  0  0
 23 35  1  0  0  0  0
 24 26  2  0  0  0  0
 25 26  1  0  0  0  0
 25 36  1  0  0  0  0
M  END
> <PUBCHEM_COMPOUND_CID>
6509439

> <PUBCHEM_COMPOUND_CANONICALIZED>
1

> <PUBCHEM_CACTVS_COMPLEXITY>
644

> <PUBCHEM_CACTVS_HBOND_ACCEPTOR>
6

> <PUBCHEM_CACTVS_HBOND_DONOR>
1

> <PUBCHEM_CACTVS_ROTATABLE_BOND>
4

> <PUBCHEM_CACTVS_SUBSKEYS>
AAADccB6OABmAAAAAAAAAAAAAAAAAWJAAAAwAAAAAAAAAAABwAAAHgYACAAADC7B2CQyDIMABkiMAqHSGACCCABkJRgIikGOCsgOJjKFNzqCeSCkxhGYqYeIyPCOBAAAIAAAAAQIAABAAAAACAAAAAAAAA==

> <PUBCHEM_IUPAC_OPENEYE_NAME>
2-[(5Z)-5-[[5-(3,4-dichlorophenyl)-2-furyl]methylene]-4-oxo-2-thioxo-thiazolidin-3-yl]propanoic acid

> <PUBCHEM_IUPAC_CAS_NAME>
2-[(5Z)-5-[[5-(3,4-dichlorophenyl)-2-furanyl]methylidene]-4-oxo-2-sulfanylidene-3-thiazolidinyl]propanoic acid

> <PUBCHEM_IUPAC_NAME>
2-[(5Z)-5-[[5-(3,4-dichlorophenyl)furan-2-yl]methylidene]-4-oxo-2-sulfanylidene-1,3-thiazolidin-3-yl]propanoic acid

> <PUBCHEM_IUPAC_SYSTEMATIC_NAME>
2-[(5Z)-5-[[5-(3,4-dichlorophenyl)furan-2-yl]methylidene]-4-oxidanylidene-2-sulfanylidene-1,3-thiazolidin-3-yl]propanoic acid

> <PUBCHEM_IUPAC_TRADITIONAL_NAME>
2-[(5Z)-5-[[5-(3,4-dichlorophenyl)-2-furyl]methylene]-4-keto-2-thioxo-thiazolidin-3-yl]propionic acid

> <PUBCHEM_IUPAC_INCHI>
InChI=1S/C17H11Cl2NO4S2/c1-8(16(22)23)20-15(21)14(26-17(20)25)7-10-3-5-13(24-10)9-2-4-11(18)12(19)6-9/h2-8H,1H3,(H,22,23)/b14-7-

> <PUBCHEM_IUPAC_INCHIKEY>
RMPBELBATFIZNT-AUWJEWJLSA-N

> <PUBCHEM_XLOGP3_AA>
5

> <PUBCHEM_EXACT_MASS>
426.951

> <PUBCHEM_MOLECULAR_FORMULA>
C17H11Cl2NO4S2

> <PUBCHEM_MOLECULAR_WEIGHT>
428.298

> <PUBCHEM_OPENEYE_CAN_SMILES>
CC(C(=O)O)N1C(=O)C(=CC2=CC=C(O2)C3=CC(=C(C=C3)Cl)Cl)SC1=S

> <PUBCHEM_OPENEYE_ISO_SMILES>
CC(C(=O)O)N1C(=O)/C(=C/C2=CC=C(O2)C3=CC(=C(C=C3)Cl)Cl)/SC1=S

> <PUBCHEM_CACTVS_TPSA>
128

> <PUBCHEM_MONOISOTOPIC_WEIGHT>
426.951

> <PUBCHEM_TOTAL_CHARGE>
0

> <PUBCHEM_HEAVY_ATOM_COUNT>
26

> <PUBCHEM_ATOM_DEF_STEREO_COUNT>
0

> <PUBCHEM_ATOM_UDEF_STEREO_COUNT>
1

> <PUBCHEM_BOND_DEF_STEREO_COUNT>
1

> <PUBCHEM_BOND_UDEF_STEREO_COUNT>
0

> <PUBCHEM_ISOTOPIC_ATOM_COUNT>
0

> <PUBCHEM_COMPONENT_COUNT>
1

> <PUBCHEM_CACTVS_TAUTO_COUNT>
1

> <PUBCHEM_COORDINATE_TYPE>
1
5
255

> <PUBCHEM_BONDANNOTATIONS>
10  27  3
16  20  8
18  21  8
19  22  8
19  23  8
20  21  8
22  24  8
23  25  8
24  26  8
25  26  8
5  16  8
5  18  8

$$$$
1544033
  -OEChem-11021605012D

 40 42  0     0  0  0  0  0  0999 V2000
    2.0000   -4.2791    0.0000 Cl  0  0  0  0  0  0  0  0  0  0  0  0
    3.4350    0.1902    0.0000 S   0  0  0  0  0  0  0  0  0  0  0  0
    2.4644    1.6848    0.0000 S   0  0  0  0  0  0  0  0  0  0  0  0
    4.5411   -2.6913    0.0000 O   0  0  0  0  0  0  0  0  0  0  0  0
    5.9076    0.9529    0.0000 O   0  0  0  0  0  0  0  0  0  0  0  0
    3.3814    5.8642    0.0000 O   0  0  0  0  0  0  0  0  0  0  0  0
    2.2224    4.5770    0.0000 O   0  0  0  0  0  0  0  0  0  0  0  0
    4.2440    1.5915    0.0000 N   0  0  0  0  0  0  0  0  0  0  0  0
    4.4519    2.5697    0.0000 C   0  0  0  0  0  0  0  0  0  0  0  0
    3.7087    3.2388    0.0000 C   0  0  0  0  0  0  0  0  0  0  0  0
    3.9166    4.2169    0.0000 C   0  0  0  0  0  0  0  0  0  0  0  0
    4.9131    0.8484    0.0000 C   0  0  0  0  0  0  0  0  0  0  0  0
    4.4131   -0.0177    0.0000 C   0  0  0  0  0  0  0  0  0  0  0  0
    3.3304    1.1848    0.0000 C   0  0  0  0  0  0  0  0  0  0  0  0
    4.8198   -0.9312    0.0000 C   0  0  0  0  0  0  0  0  0  0  0  0
    4.2320   -1.7402    0.0000 C   0  0  0  0  0  0  0  0  0  0  0  0
    3.7320   -3.2791    0.0000 C   0  0  0  0  0  0  0  0  0  0  0  0
    3.2320   -1.7402    0.0000 C   0  0  0  0  0  0  0  0  0  0  0  0
    3.1735    4.8861    0.0000 C   0  0  0  0  0  0  0  0  0  0  0  0
    3.7320   -4.2791    0.0000 C   0  0  0  0  0  0  0  0  0  0  0  0
    2.9230   -2.6913    0.0000 C   0  0  0  0  0  0  0  0  0  0  0  0
    2.8660   -4.7791    0.0000 C   0  0  0  0  0  0  0  0  0  0  0  0
    4.5981   -4.7791    0.0000 C   0  0  0  0  0  0  0  0  0  0  0  0
    2.8660   -5.7791    0.0000 C   0  0  0  0  0  0  0  0  0  0  0  0
    4.5981   -5.7791    0.0000 C   0  0  0  0  0  0  0  0  0  0  0  0
    3.7320   -6.2791    0.0000 C   0  0  0  0  0  0  0  0  0  0  0  0
    5.0267    2.3374    0.0000 H   0  0  0  0  0  0  0  0  0  0  0  0
    4.7804    3.0954    0.0000 H   0  0  0  0  0  0  0  0  0  0  0  0
    3.1339    3.4710    0.0000 H   0  0  0  0  0  0  0  0  0  0  0  0
    3.3802    2.7130    0.0000 H   0  0  0  0  0  0  0  0  0  0  0  0
    4.4915    3.9847    0.0000 H   0  0  0  0  0  0  0  0  0  0  0  0
    4.2452    4.7427    0.0000 H   0  0  0  0  0  0  0  0  0  0  0  0
    5.4364   -0.9960    0.0000 H   0  0  0  0  0  0  0  0  0  0  0  0
    2.8676   -1.2386    0.0000 H   0  0  0  0  0  0  0  0  0  0  0  0
    2.3334   -2.8829    0.0000 H   0  0  0  0  0  0  0  0  0  0  0  0
    5.1350   -4.4691    0.0000 H   0  0  0  0  0  0  0  0  0  0  0  0
    2.3291   -6.0891    0.0000 H   0  0  0  0  0  0  0  0  0  0  0  0
    5.1350   -6.0891    0.0000 H   0  0  0  0  0  0  0  0  0  0  0  0
    3.7320   -6.8991    0.0000 H   0  0  0  0  0  0  0  0  0  0  0  0
    2.9207    6.2791    0.0000 H   0  0  0  0  0  0  0  0  0  0  0  0
  1 22  1  0  0  0  0
  2 13  1  0  0  0  0
  2 14  1  0  0  0  0
  3 14  2  0  0  0  0
  4 16  1  0  0  0  0
  4 17  1  0  0  0  0
  5 12  2  0  0  0  0
  6 19  1  0  0  0  0
  6 40  1  0  0  0  0
  7 19  2  0  0  0  0
  8  9  1  0  0  0  0
  8 12  1  0  0  0  0
  8 14  1  0  0  0  0
  9 10  1  0  0  0  0
  9 27  1  0  0  0  0
  9 28  1  0  0  0  0
 10 11  1  0  0  0  0
 10 29  1  0  0  0  0
 10 30  1  0  0  0  0
 11 19  1  0  0  0  0
 11 31  1  0  0  0  0
 11 32  1  0  0  0  0
 12 13  1  0  0  0  0
 13 15  2  0  0  0  0
 15 16  1  0  0  0  0
 15 33  1  0  0  0  0
 16 18  2  0  0  0  0
 17 20  1  0  0  0  0
 17 21  2  0  0  0  0
 18 21  1  0  0  0  0
 18 34  1  0  0  0  0
 20 22  1  0  0  0  0
 20 23  2  0  0  0  0
 21 35  1  0  0  0  0
 22 24  2  0  0  0  0
 23 25  1  0  0  0  0
 23 36  1  0  0  0  0
 24 26  1  0  0  0  0
 24 37  1  0  0  0  0
 25 26  2  0  0  0  0
 25 38  1  0  0  0  0
 26 39  1  0  0  0  0
M  END
> <PUBCHEM_COMPOUND_CID>
1544033

> <PUBCHEM_COMPOUND_CANONICALIZED>
1

> <PUBCHEM_CACTVS_COMPLEXITY>
612

> <PUBCHEM_CACTVS_HBOND_ACCEPTOR>
6

> <PUBCHEM_CACTVS_HBOND_DONOR>
1

> <PUBCHEM_CACTVS_ROTATABLE_BOND>
6

> <PUBCHEM_CACTVS_SUBSKEYS>
AAADccB6OABkAAAAAAAAAAAAAAAAAWJAAAAwAAAAAAAAAAABwAAAHgYACAAADAbB2CQwDIMABkiMAqHSGACCCABkJRgIiAEOCsgMJjKFtxqGeSCkxhGIrYesyPCOAAAAAAABAAAAAAAAAAIAAAAAAAAAAA==

> <PUBCHEM_IUPAC_OPENEYE_NAME>
4-[(5Z)-5-[[5-(2-chlorophenyl)-2-furyl]methylene]-4-oxo-2-thioxo-thiazolidin-3-yl]butanoic acid

> <PUBCHEM_IUPAC_CAS_NAME>
4-[(5Z)-5-[[5-(2-chlorophenyl)-2-furanyl]methylidene]-4-oxo-2-sulfanylidene-3-thiazolidinyl]butanoic acid

> <PUBCHEM_IUPAC_NAME>
4-[(5Z)-5-[[5-(2-chlorophenyl)furan-2-yl]methylidene]-4-oxo-2-sulfanylidene-1,3-thiazolidin-3-yl]butanoic acid

> <PUBCHEM_IUPAC_SYSTEMATIC_NAME>
4-[(5Z)-5-[[5-(2-chlorophenyl)furan-2-yl]methylidene]-4-oxidanylidene-2-sulfanylidene-1,3-thiazolidin-3-yl]butanoic acid

> <PUBCHEM_IUPAC_TRADITIONAL_NAME>
4-[(5Z)-5-[[5-(2-chlorophenyl)-2-furyl]methylene]-4-keto-2-thioxo-thiazolidin-3-yl]butyric acid

> <PUBCHEM_IUPAC_INCHI>
InChI=1S/C18H14ClNO4S2/c19-13-5-2-1-4-12(13)14-8-7-11(24-14)10-15-17(23)20(18(25)26-15)9-3-6-16(21)22/h1-2,4-5,7-8,10H,3,6,9H2,(H,21,22)/b15-10-

> <PUBCHEM_IUPAC_INCHIKEY>
BMSIUYNXHXLUPO-GDNBJRDFSA-N

> <PUBCHEM_XLOGP3_AA>
4.2

> <PUBCHEM_EXACT_MASS>
407.005

> <PUBCHEM_MOLECULAR_FORMULA>
C18H14ClNO4S2

> <PUBCHEM_MOLECULAR_WEIGHT>
407.883

> <PUBCHEM_OPENEYE_CAN_SMILES>
C1=CC=C(C(=C1)C2=CC=C(O2)C=C3C(=O)N(C(=S)S3)CCCC(=O)O)Cl

> <PUBCHEM_OPENEYE_ISO_SMILES>
C1=CC=C(C(=C1)C2=CC=C(O2)/C=C\3/C(=O)N(C(=S)S3)CCCC(=O)O)Cl

> <PUBCHEM_CACTVS_TPSA>
128

> <PUBCHEM_MONOISOTOPIC_WEIGHT>
407.005

> <PUBCHEM_TOTAL_CHARGE>
0

> <PUBCHEM_HEAVY_ATOM_COUNT>
26

> <PUBCHEM_ATOM_DEF_STEREO_COUNT>
0

> <PUBCHEM_ATOM_UDEF_STEREO_COUNT>
0

> <PUBCHEM_BOND_DEF_STEREO_COUNT>
1

> <PUBCHEM_BOND_UDEF_STEREO_COUNT>
0

> <PUBCHEM_ISOTOPIC_ATOM_COUNT>
0

> <PUBCHEM_COMPONENT_COUNT>
1

> <PUBCHEM_CACTVS_TAUTO_COUNT>
1

> <PUBCHEM_COORDINATE_TYPE>
1
5
255

> <PUBCHEM_BONDANNOTATIONS>
16  18  8
17  21  8
18  21  8
20  22  8
20  23  8
22  24  8
23  25  8
24  26  8
25  26  8
4  16  8
4  17  8

$$$$
1589310
  -OEChem-11021605012D

 46 48  0     0  0  0  0  0  0999 V2000
    4.0448   -7.6027    0.0000 Br  0  0  0  0  0  0  0  0  0  0  0  0
    3.7477   -0.1334    0.0000 S   0  0  0  0  0  0  0  0  0  0  0  0
    2.7772    1.3611    0.0000 S   0  0  0  0  0  0  0  0  0  0  0  0
    4.8539   -3.0149    0.0000 O   0  0  0  0  0  0  0  0  0  0  0  0
    6.2204    0.6292    0.0000 O   0  0  0  0  0  0  0  0  0  0  0  0
    3.1590    7.1878    0.0000 O   0  0  0  0  0  0  0  0  0  0  0  0
    2.0000    5.9007    0.0000 O   0  0  0  0  0  0  0  0  0  0  0  0
    4.5568    1.2679    0.0000 N   0  0  0  0  0  0  0  0  0  0  0  0
    4.0215    2.9151    0.0000 C   0  0  0  0  0  0  0  0  0  0  0  0
    4.2294    3.8933    0.0000 C   0  0  0  0  0  0  0  0  0  0  0  0
    4.7647    2.2460    0.0000 C   0  0  0  0  0  0  0  0  0  0  0  0
    3.4863    4.5624    0.0000 C   0  0  0  0  0  0  0  0  0  0  0  0
    3.6942    5.5406    0.0000 C   0  0  0  0  0  0  0  0  0  0  0  0
    5.2259    0.5247    0.0000 C   0  0  0  0  0  0  0  0  0  0  0  0
    3.6432    0.8611    0.0000 C   0  0  0  0  0  0  0  0  0  0  0  0
    4.7259   -0.3413    0.0000 C   0  0  0  0  0  0  0  0  0  0  0  0
    5.1326   -1.2548    0.0000 C   0  0  0  0  0  0  0  0  0  0  0  0
    2.9511    6.2097    0.0000 C   0  0  0  0  0  0  0  0  0  0  0  0
    4.5448   -2.0639    0.0000 C   0  0  0  0  0  0  0  0  0  0  0  0
    4.0448   -3.6027    0.0000 C   0  0  0  0  0  0  0  0  0  0  0  0
    3.5448   -2.0639    0.0000 C   0  0  0  0  0  0  0  0  0  0  0  0
    3.2358   -3.0149    0.0000 C   0  0  0  0  0  0  0  0  0  0  0  0
    4.0448   -4.6027    0.0000 C   0  0  0  0  0  0  0  0  0  0  0  0
    3.1788   -5.1027    0.0000 C   0  0  0  0  0  0  0  0  0  0  0  0
    4.9109   -5.1027    0.0000 C   0  0  0  0  0  0  0  0  0  0  0  0
    3.1788   -6.1027    0.0000 C   0  0  0  0  0  0  0  0  0  0  0  0
    4.9109   -6.1027    0.0000 C   0  0  0  0  0  0  0  0  0  0  0  0
    4.0448   -6.6027    0.0000 C   0  0  0  0  0  0  0  0  0  0  0  0
    3.4467    3.1474    0.0000 H   0  0  0  0  0  0  0  0  0  0  0  0
    3.6930    2.3894    0.0000 H   0  0  0  0  0  0  0  0  0  0  0  0
    4.8043    3.6610    0.0000 H   0  0  0  0  0  0  0  0  0  0  0  0
    4.5580    4.4191    0.0000 H   0  0  0  0  0  0  0  0  0  0  0  0
    5.3395    2.0138    0.0000 H   0  0  0  0  0  0  0  0  0  0  0  0
    5.0932    2.7718    0.0000 H   0  0  0  0  0  0  0  0  0  0  0  0
    2.9114    4.7947    0.0000 H   0  0  0  0  0  0  0  0  0  0  0  0
    3.1577    4.0366    0.0000 H   0  0  0  0  0  0  0  0  0  0  0  0
    4.2691    5.3083    0.0000 H   0  0  0  0  0  0  0  0  0  0  0  0
    4.0228    6.0664    0.0000 H   0  0  0  0  0  0  0  0  0  0  0  0
    5.7492   -1.3197    0.0000 H   0  0  0  0  0  0  0  0  0  0  0  0
    3.1804   -1.5623    0.0000 H   0  0  0  0  0  0  0  0  0  0  0  0
    2.6462   -3.2065    0.0000 H   0  0  0  0  0  0  0  0  0  0  0  0
    2.6419   -4.7927    0.0000 H   0  0  0  0  0  0  0  0  0  0  0  0
    5.4478   -4.7927    0.0000 H   0  0  0  0  0  0  0  0  0  0  0  0
    2.6982    7.6027    0.0000 H   0  0  0  0  0  0  0  0  0  0  0  0
    2.6419   -6.4127    0.0000 H   0  0  0  0  0  0  0  0  0  0  0  0
    5.4478   -6.4127    0.0000 H   0  0  0  0  0  0  0  0  0  0  0  0
  1 28  1  0  0  0  0
  2 15  1  0  0  0  0
  2 16  1  0  0  0  0
  3 15  2  0  0  0  0
  4 19  1  0  0  0  0
  4 20  1  0  0  0  0
  5 14  2  0  0  0  0
  6 18  1  0  0  0  0
  6 44  1  0  0  0  0
  7 18  2  0  0  0  0
  8 11  1  0  0  0  0
  8 14  1  0  0  0  0
  8 15  1  0  0  0  0
  9 10  1  0  0  0  0
  9 11  1  0  0  0  0
  9 29  1  0  0  0  0
  9 30  1  0  0  0  0
 10 12  1  0  0  0  0
 10 31  1  0  0  0  0
 10 32  1  0  0  0  0
 11 33  1  0  0  0  0
 11 34  1  0  0  0  0
 12 13  1  0  0  0  0
 12 35  1  0  0  0  0
 12 36  1  0  0  0  0
 13 18  1  0  0  0  0
 13 37  1  0  0  0  0
 13 38  1  0  0  0  0
 14 16  1  0  0  0  0
 16 17  2  0  0  0  0
 17 19  1  0  0  0  0
 17 39  1  0  0  0  0
 19 21  2  0  0  0  0
 20 22  2  0  0  0  0
 20 23  1  0  0  0  0
 21 22  1  0  0  0  0
 21 40  1  0  0  0  0
 22 41  1  0  0  0  0
 23 24  2  0  0  0  0
 23 25  1  0  0  0  0
 24 26  1  0  0  0  0
 24 42  1  0  0  0  0
 25 27  2  0  0  0  0
 25 43  1  0  0  0  0
 26 28  2  0  0  0  0
 26 45  1  0  0  0  0
 27 28  1  0  0  0  0
 27 46  1  0  0  0  0
M  END
> <PUBCHEM_COMPOUND_CID>
1589310

> <PUBCHEM_COMPOUND_CANONICALIZED>
1

> <PUBCHEM_CACTVS_COMPLEXITY>
634

> <PUBCHEM_CACTVS_HBOND_ACCEPTOR>
6

> <PUBCHEM_CACTVS_HBOND_DONOR>
1

> <PUBCHEM_CACTVS_ROTATABLE_BOND>
8

> <PUBCHEM_CACTVS_SUBSKEYS>
AAADceB6OABgEAAAAAAAAAAAAAAAAWJAAAAwAAAAAAAAAAABwAAAHgRACAABrATB2AQwDIMABkiMAqHSGACCCABkIBwIiAEOCOgMJjKEtRqGeSCkxhGIq5eYyPCOAgAAAAAAAAAEAAAAAAAAAAAAAAAAAA==

> <PUBCHEM_IUPAC_OPENEYE_NAME>
6-[(5Z)-5-[[5-(4-bromophenyl)-2-furyl]methylene]-4-oxo-2-thioxo-thiazolidin-3-yl]hexanoic acid

> <PUBCHEM_IUPAC_CAS_NAME>
6-[(5Z)-5-[[5-(4-bromophenyl)-2-furanyl]methylidene]-4-oxo-2-sulfanylidene-3-thiazolidinyl]hexanoic acid

> <PUBCHEM_IUPAC_NAME>
6-[(5Z)-5-[[5-(4-bromophenyl)furan-2-yl]methylidene]-4-oxo-2-sulfanylidene-1,3-thiazolidin-3-yl]hexanoic acid

> <PUBCHEM_IUPAC_SYSTEMATIC_NAME>
6-[(5Z)-5-[[5-(4-bromophenyl)furan-2-yl]methylidene]-4-oxidanylidene-2-sulfanylidene-1,3-thiazolidin-3-yl]hexanoic acid

> <PUBCHEM_IUPAC_TRADITIONAL_NAME>
6-[(5Z)-5-[[5-(4-bromophenyl)-2-furyl]methylene]-4-keto-2-thioxo-thiazolidin-3-yl]hexanoic acid

> <PUBCHEM_IUPAC_INCHI>
InChI=1S/C20H18BrNO4S2/c21-14-7-5-13(6-8-14)16-10-9-15(26-16)12-17-19(25)22(20(27)28-17)11-3-1-2-4-18(23)24/h5-10,12H,1-4,11H2,(H,23,24)/b17-12-

> <PUBCHEM_IUPAC_INCHIKEY>
YISTWVWBROCIRX-ATVHPVEESA-N

> <PUBCHEM_XLOGP3_AA>
5

> <PUBCHEM_EXACT_MASS>
478.986

> <PUBCHEM_MOLECULAR_FORMULA>
C20H18BrNO4S2

> <PUBCHEM_MOLECULAR_WEIGHT>
480.391

> <PUBCHEM_OPENEYE_CAN_SMILES>
C1=CC(=CC=C1C2=CC=C(O2)C=C3C(=O)N(C(=S)S3)CCCCCC(=O)O)Br

> <PUBCHEM_OPENEYE_ISO_SMILES>
C1=CC(=CC=C1C2=CC=C(O2)/C=C\3/C(=O)N(C(=S)S3)CCCCCC(=O)O)Br

> <PUBCHEM_CACTVS_TPSA>
128

> <PUBCHEM_MONOISOTOPIC_WEIGHT>
478.986

> <PUBCHEM_TOTAL_CHARGE>
0

> <PUBCHEM_HEAVY_ATOM_COUNT>
28

> <PUBCHEM_ATOM_DEF_STEREO_COUNT>
0

> <PUBCHEM_ATOM_UDEF_STEREO_COUNT>
0

> <PUBCHEM_BOND_DEF_STEREO_COUNT>
1

> <PUBCHEM_BOND_UDEF_STEREO_COUNT>
0

> <PUBCHEM_ISOTOPIC_ATOM_COUNT>
0

> <PUBCHEM_COMPONENT_COUNT>
1

> <PUBCHEM_CACTVS_TAUTO_COUNT>
1

> <PUBCHEM_COORDINATE_TYPE>
1
5
255

> <PUBCHEM_BONDANNOTATIONS>
19  21  8
20  22  8
21  22  8
23  24  8
23  25  8
24  26  8
25  27  8
26  28  8
27  28  8
4  19  8
4  20  8

$$$$
6206672
  -OEChem-11021605012D

 41 43  0     0  0  0  0  0  0999 V2000
    4.6350   -0.1685    0.0000 S   0  0  0  0  0  0  0  0  0  0  0  0
    3.3749   -1.4285    0.0000 S   0  0  0  0  0  0  0  0  0  0  0  0
    6.8951   -1.4285    0.0000 O   0  0  0  0  0  0  0  0  0  0  0  0
    5.1350   -5.7073    0.0000 O   0  0  0  0  0  0  0  0  0  0  0  0
    2.5369   -4.2073    0.0000 O   0  0  0  0  0  0  0  0  0  0  0  0
    5.1836    5.1038    0.0000 O   0  0  0  0  0  0  0  0  0  0  0  0
    3.4030   -5.7073    0.0000 O   0  0  0  0  0  0  0  0  0  0  0  0
    3.6013    4.3993    0.0000 O   0  0  0  0  0  0  0  0  0  0  0  0
    5.1350   -1.7073    0.0000 N   0  0  0  0  0  0  0  0  0  0  0  0
    5.1350   -2.7073    0.0000 C   0  0  0  0  0  0  0  0  0  0  0  0
    5.6350   -0.1685    0.0000 C   0  0  0  0  0  0  0  0  0  0  0  0
    5.9440   -1.1195    0.0000 C   0  0  0  0  0  0  0  0  0  0  0  0
    4.2690   -3.2073    0.0000 C   0  0  0  0  0  0  0  0  0  0  0  0
    4.3260   -1.1195    0.0000 C   0  0  0  0  0  0  0  0  0  0  0  0
    6.0010   -3.2073    0.0000 C   0  0  0  0  0  0  0  0  0  0  0  0
    6.2228    0.6406    0.0000 C   0  0  0  0  0  0  0  0  0  0  0  0
    5.8161    1.5541    0.0000 C   0  0  0  0  0  0  0  0  0  0  0  0
    4.2690   -4.2073    0.0000 C   0  0  0  0  0  0  0  0  0  0  0  0
    5.1350   -4.7073    0.0000 C   0  0  0  0  0  0  0  0  0  0  0  0
    6.0010   -4.2073    0.0000 C   0  0  0  0  0  0  0  0  0  0  0  0
    6.4038    2.3631    0.0000 C   0  0  0  0  0  0  0  0  0  0  0  0
    4.8215    1.6586    0.0000 C   0  0  0  0  0  0  0  0  0  0  0  0
    5.0026    3.3812    0.0000 C   0  0  0  0  0  0  0  0  0  0  0  0
    5.9971    3.2767    0.0000 C   0  0  0  0  0  0  0  0  0  0  0  0
    4.4148    2.5722    0.0000 C   0  0  0  0  0  0  0  0  0  0  0  0
    3.4030   -4.7073    0.0000 C   0  0  0  0  0  0  0  0  0  0  0  0
    4.5959    4.2947    0.0000 C   0  0  0  0  0  0  0  0  0  0  0  0
    4.7769    6.0173    0.0000 C   0  0  0  0  0  0  0  0  0  0  0  0
    3.7320   -2.8973    0.0000 H   0  0  0  0  0  0  0  0  0  0  0  0
    6.5380   -2.8973    0.0000 H   0  0  0  0  0  0  0  0  0  0  0  0
    6.8394    0.5758    0.0000 H   0  0  0  0  0  0  0  0  0  0  0  0
    6.5380   -4.5173    0.0000 H   0  0  0  0  0  0  0  0  0  0  0  0
    7.0204    2.2983    0.0000 H   0  0  0  0  0  0  0  0  0  0  0  0
    4.4571    1.1570    0.0000 H   0  0  0  0  0  0  0  0  0  0  0  0
    6.3615    3.7783    0.0000 H   0  0  0  0  0  0  0  0  0  0  0  0
    3.7982    2.6370    0.0000 H   0  0  0  0  0  0  0  0  0  0  0  0
    5.6720   -6.0173    0.0000 H   0  0  0  0  0  0  0  0  0  0  0  0
    2.0000   -4.5173    0.0000 H   0  0  0  0  0  0  0  0  0  0  0  0
    5.3433    6.2695    0.0000 H   0  0  0  0  0  0  0  0  0  0  0  0
    4.5247    6.5837    0.0000 H   0  0  0  0  0  0  0  0  0  0  0  0
    4.2105    5.7651    0.0000 H   0  0  0  0  0  0  0  0  0  0  0  0
  1 11  1  0  0  0  0
  1 14  1  0  0  0  0
  2 14  2  0  0  0  0
  3 12  2  0  0  0  0
  4 19  1  0  0  0  0
  4 37  1  0  0  0  0
  5 26  1  0  0  0  0
  5 38  1  0  0  0  0
  6 27  1  0  0  0  0
  6 28  1  0  0  0  0
  7 26  2  0  0  0  0
  8 27  2  0  0  0  0
  9 10  1  0  0  0  0
  9 12  1  0  0  0  0
  9 14  1  0  0  0  0
 10 13  2  0  0  0  0
 10 15  1  0  0  0  0
 11 12  1  0  0  0  0
 11 16  2  0  0  0  0
 13 18  1  0  0  0  0
 13 29  1  0  0  0  0
 15 20  2  0  0  0  0
 15 30  1  0  0  0  0
 16 17  1  0  0  0  0
 16 31  1  0  0  0  0
 17 21  2  0  0  0  0
 17 22  1  0  0  0  0
 18 19  2  0  0  0  0
 18 26  1  0  0  0  0
 19 20  1  0  0  0  0
 20 32  1  0  0  0  0
 21 24  1  0  0  0  0
 21 33  1  0  0  0  0
 22 25  2  0  0  0  0
 22 34  1  0  0  0  0
 23 24  2  0  0  0  0
 23 25  1  0  0  0  0
 23 27  1  0  0  0  0
 24 35  1  0  0  0  0
 25 36  1  0  0  0  0
 28 39  1  0  0  0  0
 28 40  1  0  0  0  0
 28 41  1  0  0  0  0
M  END
> <PUBCHEM_COMPOUND_CID>
6206672

> <PUBCHEM_COMPOUND_CANONICALIZED>
1

> <PUBCHEM_CACTVS_COMPLEXITY>
701

> <PUBCHEM_CACTVS_HBOND_ACCEPTOR>
8

> <PUBCHEM_CACTVS_HBOND_DONOR>
2

> <PUBCHEM_CACTVS_ROTATABLE_BOND>
5

> <PUBCHEM_CACTVS_SUBSKEYS>
AAADccB6OABgAAAAAAAAAAAAAAAAAWAAAAAwYAAAAAAAAAABQAAAHgQACAAADAyB2AIyzoMABgiMAiXSWACCAABlIhgIiAEGbMgIJzbCtZuEcUhl5BHI+Ye8yDCOQEAAQAAIAACAgACAABAAAAAAAAAAAA==

> <PUBCHEM_IUPAC_OPENEYE_NAME>
2-hydroxy-5-[(5Z)-5-[(4-methoxycarbonylphenyl)methylene]-4-oxo-2-thioxo-thiazolidin-3-yl]benzoic acid

> <PUBCHEM_IUPAC_CAS_NAME>
2-hydroxy-5-[(5Z)-5-[(4-methoxycarbonylphenyl)methylidene]-4-oxo-2-sulfanylidene-3-thiazolidinyl]benzoic acid

> <PUBCHEM_IUPAC_NAME>
2-hydroxy-5-[(5Z)-5-[(4-methoxycarbonylphenyl)methylidene]-4-oxo-2-sulfanylidene-1,3-thiazolidin-3-yl]benzoic acid

> <PUBCHEM_IUPAC_SYSTEMATIC_NAME>
5-[(5Z)-5-[(4-methoxycarbonylphenyl)methylidene]-4-oxidanylidene-2-sulfanylidene-1,3-thiazolidin-3-yl]-2-oxidanyl-benzoic acid

> <PUBCHEM_IUPAC_TRADITIONAL_NAME>
5-[(5Z)-5-(4-carbomethoxybenzylidene)-4-keto-2-thioxo-thiazolidin-3-yl]-2-hydroxy-benzoic acid

> <PUBCHEM_IUPAC_INCHI>
InChI=1S/C19H13NO6S2/c1-26-18(25)11-4-2-10(3-5-11)8-15-16(22)20(19(27)28-15)12-6-7-14(21)13(9-12)17(23)24/h2-9,21H,1H3,(H,23,24)/b15-8-

> <PUBCHEM_IUPAC_INCHIKEY>
ZSDAFWXYRGKVDO-NVNXTCNLSA-N

> <PUBCHEM_XLOGP3_AA>
4.1

> <PUBCHEM_EXACT_MASS>
415.018

> <PUBCHEM_MOLECULAR_FORMULA>
C19H13NO6S2

> <PUBCHEM_MOLECULAR_WEIGHT>
415.434

> <PUBCHEM_OPENEYE_CAN_SMILES>
COC(=O)C1=CC=C(C=C1)C=C2C(=O)N(C(=S)S2)C3=CC(=C(C=C3)O)C(=O)O

> <PUBCHEM_OPENEYE_ISO_SMILES>
COC(=O)C1=CC=C(C=C1)/C=C\2/C(=O)N(C(=S)S2)C3=CC(=C(C=C3)O)C(=O)O

> <PUBCHEM_CACTVS_TPSA>
162

> <PUBCHEM_MONOISOTOPIC_WEIGHT>
415.018

> <PUBCHEM_TOTAL_CHARGE>
0

> <PUBCHEM_HEAVY_ATOM_COUNT>
28

> <PUBCHEM_ATOM_DEF_STEREO_COUNT>
0

> <PUBCHEM_ATOM_UDEF_STEREO_COUNT>
0

> <PUBCHEM_BOND_DEF_STEREO_COUNT>
1

> <PUBCHEM_BOND_UDEF_STEREO_COUNT>
0

> <PUBCHEM_ISOTOPIC_ATOM_COUNT>
0

> <PUBCHEM_COMPONENT_COUNT>
1

> <PUBCHEM_CACTVS_TAUTO_COUNT>
4

> <PUBCHEM_COORDINATE_TYPE>
1
5
255

> <PUBCHEM_BONDANNOTATIONS>
10  13  8
10  15  8
13  18  8
15  20  8
17  21  8
17  22  8
18  19  8
19  20  8
21  24  8
22  25  8
23  24  8
23  25  8

$$$$
43861157
  -OEChem-11021605012D

 39 41  0     1  0  0  0  0  0999 V2000
    4.6456   -1.1373    0.0000 S   0  0  0  0  0  0  0  0  0  0  0  0
    6.3092   -0.4987    0.0000 S   0  0  0  0  0  0  0  0  0  0  0  0
    3.6392    2.0899    0.0000 O   0  0  0  0  0  0  0  0  0  0  0  0
    3.0934    0.9331    0.0000 O   0  0  0  0  0  0  0  0  0  0  0  0
    5.0404    3.1080    0.0000 O   0  0  0  0  0  0  0  0  0  0  0  0
    4.8147    0.4719    0.0000 N   0  0  0  0  0  0  0  0  0  0  0  0
    2.8660   -4.2306    0.0000 N   0  0  0  0  0  0  0  0  0  0  0  0
    5.2215    1.3854    0.0000 C   0  0  3  0  0  0  0  0  0  0  0  0
    6.2160    1.4899    0.0000 C   0  0  0  0  0  0  0  0  0  0  0  0
    6.6227    2.4035    0.0000 C   0  0  0  0  0  0  0  0  0  0  0  0
    3.8366    0.2640    0.0000 C   0  0  0  0  0  0  0  0  0  0  0  0
    4.6337    2.1944    0.0000 C   0  0  0  0  0  0  0  0  0  0  0  0
    5.3147   -0.3942    0.0000 C   0  0  0  0  0  0  0  0  0  0  0  0
    3.7320   -0.7306    0.0000 C   0  0  0  0  0  0  0  0  0  0  0  0
    7.6172    2.5080    0.0000 C   0  0  0  0  0  0  0  0  0  0  0  0
    6.0349    3.2125    0.0000 C   0  0  0  0  0  0  0  0  0  0  0  0
    2.8660   -1.2306    0.0000 C   0  0  0  0  0  0  0  0  0  0  0  0
    8.0240    3.4216    0.0000 C   0  0  0  0  0  0  0  0  0  0  0  0
    6.4417    4.1260    0.0000 C   0  0  0  0  0  0  0  0  0  0  0  0
    2.8660   -2.2306    0.0000 C   0  0  0  0  0  0  0  0  0  0  0  0
    7.4362    4.2306    0.0000 C   0  0  0  0  0  0  0  0  0  0  0  0
    3.7320   -2.7306    0.0000 C   0  0  0  0  0  0  0  0  0  0  0  0
    2.0000   -2.7306    0.0000 C   0  0  0  0  0  0  0  0  0  0  0  0
    3.7320   -3.7306    0.0000 C   0  0  0  0  0  0  0  0  0  0  0  0
    2.0000   -3.7306    0.0000 C   0  0  0  0  0  0  0  0  0  0  0  0
    4.6049    1.3206    0.0000 H   0  0  0  0  0  0  0  0  0  0  0  0
    6.1727    0.8714    0.0000 H   0  0  0  0  0  0  0  0  0  0  0  0
    6.8176    1.3399    0.0000 H   0  0  0  0  0  0  0  0  0  0  0  0
    7.9817    2.0064    0.0000 H   0  0  0  0  0  0  0  0  0  0  0  0
    5.4183    3.1477    0.0000 H   0  0  0  0  0  0  0  0  0  0  0  0
    2.3291   -0.9206    0.0000 H   0  0  0  0  0  0  0  0  0  0  0  0
    8.6406    3.4864    0.0000 H   0  0  0  0  0  0  0  0  0  0  0  0
    6.0772    4.6276    0.0000 H   0  0  0  0  0  0  0  0  0  0  0  0
    7.6884    4.7970    0.0000 H   0  0  0  0  0  0  0  0  0  0  0  0
    3.2747    2.5915    0.0000 H   0  0  0  0  0  0  0  0  0  0  0  0
    4.2690   -2.4206    0.0000 H   0  0  0  0  0  0  0  0  0  0  0  0
    1.4631   -2.4206    0.0000 H   0  0  0  0  0  0  0  0  0  0  0  0
    4.2690   -4.0406    0.0000 H   0  0  0  0  0  0  0  0  0  0  0  0
    1.4631   -4.0406    0.0000 H   0  0  0  0  0  0  0  0  0  0  0  0
  1 13  1  0  0  0  0
  1 14  1  0  0  0  0
  2 13  2  0  0  0  0
  3 12  1  0  0  0  0
  3 35  1  0  0  0  0
  4 11  2  0  0  0  0
  5 12  2  0  0  0  0
  6  8  1  0  0  0  0
  6 11  1  0  0  0  0
  6 13  1  0  0  0  0
  7 24  2  0  0  0  0
  7 25  1  0  0  0  0
  8  9  1  0  0  0  0
  8 12  1  0  0  0  0
  8 26  1  0  0  0  0
  9 10  1  0  0  0  0
  9 27  1  0  0  0  0
  9 28  1  0  0  0  0
 10 15  2  0  0  0  0
 10 16  1  0  0  0  0
 11 14  1  0  0  0  0
 14 17  2  0  0  0  0
 15 18  1  0  0  0  0
 15 29  1  0  0  0  0
 16 19  2  0  0  0  0
 16 30  1  0  0  0  0
 17 20  1  0  0  0  0
 17 31  1  0  0  0  0
 18 21  2  0  0  0  0
 18 32  1  0  0  0  0
 19 21  1  0  0  0  0
 19 33  1  0  0  0  0
 20 22  2  0  0  0  0
 20 23  1  0  0  0  0
 21 34  1  0  0  0  0
 22 24  1  0  0  0  0
 22 36  1  0  0  0  0
 23 25  2  0  0  0  0
 23 37  1  0  0  0  0
 24 38  1  0  0  0  0
 25 39  1  0  0  0  0
M  END
> <PUBCHEM_COMPOUND_CID>
43861157

> <PUBCHEM_COMPOUND_CANONICALIZED>
1

> <PUBCHEM_CACTVS_COMPLEXITY>
567

> <PUBCHEM_CACTVS_HBOND_ACCEPTOR>
6

> <PUBCHEM_CACTVS_HBOND_DONOR>
1

> <PUBCHEM_CACTVS_ROTATABLE_BOND>
5

> <PUBCHEM_CACTVS_SUBSKEYS>
AAADccB7MABgAAAAAAAAAAAAAAAAAWAAAAA8QAAAAAAAAAABwAAAHgQACAAADCjB2gQ8iJMIEgisAjH3XACCgCBxAjgI2CG4ZNgKIHLAkbGEYAhkhgDYyYeYyKCOAAAAAAAAAAAAAAAAAAAAAAAAAAAAAA==

> <PUBCHEM_IUPAC_OPENEYE_NAME>
2-[(5Z)-4-oxo-5-(4-pyridylmethylene)-2-thioxo-thiazolidin-3-yl]-3-phenyl-propanoic acid

> <PUBCHEM_IUPAC_CAS_NAME>
2-[(5Z)-4-oxo-5-(pyridin-4-ylmethylidene)-2-sulfanylidene-3-thiazolidinyl]-3-phenylpropanoic acid

> <PUBCHEM_IUPAC_NAME>
2-[(5Z)-4-oxo-5-(pyridin-4-ylmethylidene)-2-sulfanylidene-1,3-thiazolidin-3-yl]-3-phenylpropanoic acid

> <PUBCHEM_IUPAC_SYSTEMATIC_NAME>
2-[(5Z)-4-oxidanylidene-5-(pyridin-4-ylmethylidene)-2-sulfanylidene-1,3-thiazolidin-3-yl]-3-phenyl-propanoic acid

> <PUBCHEM_IUPAC_TRADITIONAL_NAME>
2-[(5Z)-4-keto-5-(4-pyridylmethylene)-2-thioxo-thiazolidin-3-yl]-3-phenyl-propionic acid

> <PUBCHEM_IUPAC_INCHI>
InChI=1S/C18H14N2O3S2/c21-16-15(11-13-6-8-19-9-7-13)25-18(24)20(16)14(17(22)23)10-12-4-2-1-3-5-12/h1-9,11,14H,10H2,(H,22,23)/b15-11-

> <PUBCHEM_IUPAC_INCHIKEY>
FKYJPXSXWUDCOY-PTNGSMBKSA-N

> <PUBCHEM_XLOGP3_AA>
3.5

> <PUBCHEM_EXACT_MASS>
370.045

> <PUBCHEM_MOLECULAR_FORMULA>
C18H14N2O3S2

> <PUBCHEM_MOLECULAR_WEIGHT>
370.441

> <PUBCHEM_OPENEYE_CAN_SMILES>
C1=CC=C(C=C1)CC(C(=O)O)N2C(=O)C(=CC3=CC=NC=C3)SC2=S

> <PUBCHEM_OPENEYE_ISO_SMILES>
C1=CC=C(C=C1)CC(C(=O)O)N2C(=O)/C(=C/C3=CC=NC=C3)/SC2=S

> <PUBCHEM_CACTVS_TPSA>
128

> <PUBCHEM_MONOISOTOPIC_WEIGHT>
370.045

> <PUBCHEM_TOTAL_CHARGE>
0

> <PUBCHEM_HEAVY_ATOM_COUNT>
25

> <PUBCHEM_ATOM_DEF_STEREO_COUNT>
0

> <PUBCHEM_ATOM_UDEF_STEREO_COUNT>
1

> <PUBCHEM_BOND_DEF_STEREO_COUNT>
1

> <PUBCHEM_BOND_UDEF_STEREO_COUNT>
0

> <PUBCHEM_ISOTOPIC_ATOM_COUNT>
0

> <PUBCHEM_COMPONENT_COUNT>
1

> <PUBCHEM_CACTVS_TAUTO_COUNT>
1

> <PUBCHEM_COORDINATE_TYPE>
1
5
255

> <PUBCHEM_BONDANNOTATIONS>
10  15  8
10  16  8
15  18  8
16  19  8
18  21  8
19  21  8
20  22  8
20  23  8
22  24  8
23  25  8
7  24  8
7  25  8
8  9  3

$$$$
1591868
  -OEChem-11021605012D

 27 29  0     0  0  0  0  0  0999 V2000
    3.2601    0.6036    0.0000 S   0  0  0  0  0  0  0  0  0  0  0  0
    2.0000   -0.6565    0.0000 S   0  0  0  0  0  0  0  0  0  0  0  0
    3.4630    2.5340    0.0000 O   0  0  0  0  0  0  0  0  0  0  0  0
    5.5202   -0.6565    0.0000 O   0  0  0  0  0  0  0  0  0  0  0  0
    3.7601   -0.9353    0.0000 N   0  0  0  0  0  0  0  0  0  0  0  0
    4.6261   -3.4353    0.0000 N   0  0  0  0  0  0  0  0  0  0  0  0
    4.2601    0.6036    0.0000 C   0  0  0  0  0  0  0  0  0  0  0  0
    4.5691   -0.3475    0.0000 C   0  0  0  0  0  0  0  0  0  0  0  0
    3.7601   -1.9353    0.0000 C   0  0  0  0  0  0  0  0  0  0  0  0
    2.9511   -0.3475    0.0000 C   0  0  0  0  0  0  0  0  0  0  0  0
    4.8479    1.4126    0.0000 C   0  0  0  0  0  0  0  0  0  0  0  0
    4.4411    2.3261    0.0000 C   0  0  0  0  0  0  0  0  0  0  0  0
    2.8940   -2.4353    0.0000 C   0  0  0  0  0  0  0  0  0  0  0  0
    4.6261   -2.4353    0.0000 C   0  0  0  0  0  0  0  0  0  0  0  0
    4.9411    3.1921    0.0000 C   0  0  0  0  0  0  0  0  0  0  0  0
    2.8940   -3.4353    0.0000 C   0  0  0  0  0  0  0  0  0  0  0  0
    4.2720    3.9353    0.0000 C   0  0  0  0  0  0  0  0  0  0  0  0
    3.7601   -3.9353    0.0000 C   0  0  0  0  0  0  0  0  0  0  0  0
    3.3584    3.5286    0.0000 C   0  0  0  0  0  0  0  0  0  0  0  0
    5.4645    1.3478    0.0000 H   0  0  0  0  0  0  0  0  0  0  0  0
    2.3571   -2.1253    0.0000 H   0  0  0  0  0  0  0  0  0  0  0  0
    5.1630   -2.1253    0.0000 H   0  0  0  0  0  0  0  0  0  0  0  0
    5.5577    3.2569    0.0000 H   0  0  0  0  0  0  0  0  0  0  0  0
    2.3571   -3.7453    0.0000 H   0  0  0  0  0  0  0  0  0  0  0  0
    4.4009    4.5417    0.0000 H   0  0  0  0  0  0  0  0  0  0  0  0
    3.7601   -4.5553    0.0000 H   0  0  0  0  0  0  0  0  0  0  0  0
    2.8215    3.8386    0.0000 H   0  0  0  0  0  0  0  0  0  0  0  0
  1  7  1  0  0  0  0
  1 10  1  0  0  0  0
  2 10  2  0  0  0  0
  3 12  1  0  0  0  0
  3 19  1  0  0  0  0
  4  8  2  0  0  0  0
  5  8  1  0  0  0  0
  5  9  1  0  0  0  0
  5 10  1  0  0  0  0
  6 14  1  0  0  0  0
  6 18  2  0  0  0  0
  7  8  1  0  0  0  0
  7 11  2  0  0  0  0
  9 13  1  0  0  0  0
  9 14  2  0  0  0  0
 11 12  1  0  0  0  0
 11 20  1  0  0  0  0
 12 15  2  0  0  0  0
 13 16  2  0  0  0  0
 13 21  1  0  0  0  0
 14 22  1  0  0  0  0
 15 17  1  0  0  0  0
 15 23  1  0  0  0  0
 16 18  1  0  0  0  0
 16 24  1  0  0  0  0
 17 19  2  0  0  0  0
 17 25  1  0  0  0  0
 18 26  1  0  0  0  0
 19 27  1  0  0  0  0
M  END
> <PUBCHEM_COMPOUND_CID>
1591868

> <PUBCHEM_COMPOUND_CANONICALIZED>
1

> <PUBCHEM_CACTVS_COMPLEXITY>
425

> <PUBCHEM_CACTVS_HBOND_ACCEPTOR>
5

> <PUBCHEM_CACTVS_HBOND_DONOR>
0

> <PUBCHEM_CACTVS_ROTATABLE_BOND>
2

> <PUBCHEM_CACTVS_SUBSKEYS>
AAADccBzMABgAAAAAAAAAAAAAAAAAWJAAAAsAAAAAAAAAAAB4AAAHgQAAAAACAzh0gY8xJMIFEisAL131ACCiCB1MjgI2CE+fNgMZvLEtZuWOSjkxBHI6YaYAAAAAAAAAAAAAAAAAAAAAAAAAAAAAAAAAA==

> <PUBCHEM_IUPAC_OPENEYE_NAME>
(5Z)-5-(2-furylmethylene)-3-(3-pyridyl)-2-thioxo-thiazolidin-4-one

> <PUBCHEM_IUPAC_CAS_NAME>
(5Z)-5-(2-furanylmethylidene)-3-(3-pyridinyl)-2-sulfanylidene-4-thiazolidinone

> <PUBCHEM_IUPAC_NAME>
(5Z)-5-(furan-2-ylmethylidene)-3-pyridin-3-yl-2-sulfanylidene-1,3-thiazolidin-4-one

> <PUBCHEM_IUPAC_SYSTEMATIC_NAME>
(5Z)-5-(furan-2-ylmethylidene)-3-pyridin-3-yl-2-sulfanylidene-1,3-thiazolidin-4-one

> <PUBCHEM_IUPAC_TRADITIONAL_NAME>
(5Z)-5-(2-furfurylidene)-3-(3-pyridyl)-2-thioxo-thiazolidin-4-one

> <PUBCHEM_IUPAC_INCHI>
InChI=1S/C13H8N2O2S2/c16-12-11(7-10-4-2-6-17-10)19-13(18)15(12)9-3-1-5-14-8-9/h1-8H/b11-7-

> <PUBCHEM_IUPAC_INCHIKEY>
FMAMMNRLZOOXEN-XFFZJAGNSA-N

> <PUBCHEM_XLOGP3_AA>
2.6

> <PUBCHEM_EXACT_MASS>
288.003

> <PUBCHEM_MOLECULAR_FORMULA>
C13H8N2O2S2

> <PUBCHEM_MOLECULAR_WEIGHT>
288.339

> <PUBCHEM_OPENEYE_CAN_SMILES>
C1=CC(=CN=C1)N2C(=O)C(=CC3=CC=CO3)SC2=S

> <PUBCHEM_OPENEYE_ISO_SMILES>
C1=CC(=CN=C1)N2C(=O)/C(=C/C3=CC=CO3)/SC2=S

> <PUBCHEM_CACTVS_TPSA>
104

> <PUBCHEM_MONOISOTOPIC_WEIGHT>
288.003

> <PUBCHEM_TOTAL_CHARGE>
0

> <PUBCHEM_HEAVY_ATOM_COUNT>
19

> <PUBCHEM_ATOM_DEF_STEREO_COUNT>
0

> <PUBCHEM_ATOM_UDEF_STEREO_COUNT>
0

> <PUBCHEM_BOND_DEF_STEREO_COUNT>
1

> <PUBCHEM_BOND_UDEF_STEREO_COUNT>
0

> <PUBCHEM_ISOTOPIC_ATOM_COUNT>
0

> <PUBCHEM_COMPONENT_COUNT>
1

> <PUBCHEM_CACTVS_TAUTO_COUNT>
1

> <PUBCHEM_COORDINATE_TYPE>
1
5
255

> <PUBCHEM_BONDANNOTATIONS>
12  15  8
13  16  8
15  17  8
16  18  8
17  19  8
3  12  8
3  19  8
6  14  8
6  18  8
9  13  8
9  14  8

$$$$
2261810
  -OEChem-11021605012D

 30 32  0     0  0  0  0  0  0999 V2000
    4.8952    2.2308    0.0000 S   0  0  0  0  0  0  0  0  0  0  0  0
    5.8657    3.7253    0.0000 S   0  0  0  0  0  0  0  0  0  0  0  0
    3.7891   -0.6507    0.0000 O   0  0  0  0  0  0  0  0  0  0  0  0
    2.4225    2.9934    0.0000 O   0  0  0  0  0  0  0  0  0  0  0  0
    2.0000   -2.7385    0.0000 O   0  5  0  0  0  0  0  0  0  0  0  0
    2.8660   -1.2385    0.0000 O   0  0  0  0  0  0  0  0  0  0  0  0
    2.8660   -2.2385    0.0000 N   0  3  0  0  0  0  0  0  0  0  0  0
    4.0862    3.6321    0.0000 N   0  0  0  0  0  0  0  0  0  0  0  0
    4.5981   -1.2385    0.0000 C   0  0  0  0  0  0  0  0  0  0  0  0
    4.5981   -2.2385    0.0000 C   0  0  0  0  0  0  0  0  0  0  0  0
    4.0981    0.3003    0.0000 C   0  0  0  0  0  0  0  0  0  0  0  0
    5.4071   -0.6507    0.0000 C   0  0  0  0  0  0  0  0  0  0  0  0
    3.7320   -2.7385    0.0000 C   0  0  0  0  0  0  0  0  0  0  0  0
    5.0981    0.3003    0.0000 C   0  0  0  0  0  0  0  0  0  0  0  0
    5.4641   -2.7385    0.0000 C   0  0  0  0  0  0  0  0  0  0  0  0
    3.5103    1.1094    0.0000 C   0  0  0  0  0  0  0  0  0  0  0  0
    3.9170    2.0229    0.0000 C   0  0  0  0  0  0  0  0  0  0  0  0
    3.7320   -3.7385    0.0000 C   0  0  0  0  0  0  0  0  0  0  0  0
    5.4641   -3.7385    0.0000 C   0  0  0  0  0  0  0  0  0  0  0  0
    4.5981   -4.2385    0.0000 C   0  0  0  0  0  0  0  0  0  0  0  0
    3.4170    2.8889    0.0000 C   0  0  0  0  0  0  0  0  0  0  0  0
    4.9997    3.2253    0.0000 C   0  0  0  0  0  0  0  0  0  0  0  0
    5.9967   -0.8423    0.0000 H   0  0  0  0  0  0  0  0  0  0  0  0
    5.4625    0.8019    0.0000 H   0  0  0  0  0  0  0  0  0  0  0  0
    6.0010   -2.4285    0.0000 H   0  0  0  0  0  0  0  0  0  0  0  0
    2.8937    1.0445    0.0000 H   0  0  0  0  0  0  0  0  0  0  0  0
    3.1951   -4.0485    0.0000 H   0  0  0  0  0  0  0  0  0  0  0  0
    6.0010   -4.0485    0.0000 H   0  0  0  0  0  0  0  0  0  0  0  0
    4.5981   -4.8585    0.0000 H   0  0  0  0  0  0  0  0  0  0  0  0
    3.9572    4.2385    0.0000 H   0  0  0  0  0  0  0  0  0  0  0  0
  1 17  1  0  0  0  0
  1 22  1  0  0  0  0
  2 22  2  0  0  0  0
  3  9  1  0  0  0  0
  3 11  1  0  0  0  0
  4 21  2  0  0  0  0
  5  7  1  0  0  0  0
  6  7  2  0  0  0  0
  7 13  1  0  0  0  0
  8 21  1  0  0  0  0
  8 22  1  0  0  0  0
  8 30  1  0  0  0  0
  9 10  1  0  0  0  0
  9 12  2  0  0  0  0
 10 13  1  0  0  0  0
 10 15  2  0  0  0  0
 11 14  2  0  0  0  0
 11 16  1  0  0  0  0
 12 14  1  0  0  0  0
 12 23  1  0  0  0  0
 13 18  2  0  0  0  0
 14 24  1  0  0  0  0
 15 19  1  0  0  0  0
 15 25  1  0  0  0  0
 16 17  2  0  0  0  0
 16 26  1  0  0  0  0
 17 21  1  0  0  0  0
 18 20  1  0  0  0  0
 18 27  1  0  0  0  0
 19 20  2  0  0  0  0
 19 28  1  0  0  0  0
 20 29  1  0  0  0  0
M  CHG  2   5  -1   7   1
M  END
> <PUBCHEM_COMPOUND_CID>
2261810

> <PUBCHEM_COMPOUND_CANONICALIZED>
1

> <PUBCHEM_CACTVS_COMPLEXITY>
531

> <PUBCHEM_CACTVS_HBOND_ACCEPTOR>
6

> <PUBCHEM_CACTVS_HBOND_DONOR>
1

> <PUBCHEM_CACTVS_ROTATABLE_BOND>
2

> <PUBCHEM_CACTVS_SUBSKEYS>
AAADccBzOABgAAAAAAAAAAAAAAAAAWJAAAAwAAAAAAAAAAABwAAAHgQUAAAADAyB2AAwxILQREiNAqVSUwCCCABkIhkoiAEGbMoMJjqEtZuCOaDmwBEI6ceYyPCOAAAAAAACAAAAAAAAAAQAAAAAAAAAAA==

> <PUBCHEM_IUPAC_OPENEYE_NAME>
(5Z)-5-[[5-(2-nitrophenyl)-2-furyl]methylene]-2-thioxo-thiazolidin-4-one

> <PUBCHEM_IUPAC_CAS_NAME>
(5Z)-5-[[5-(2-nitrophenyl)-2-furanyl]methylidene]-2-sulfanylidene-4-thiazolidinone

> <PUBCHEM_IUPAC_NAME>
(5Z)-5-[[5-(2-nitrophenyl)furan-2-yl]methylidene]-2-sulfanylidene-1,3-thiazolidin-4-one

> <PUBCHEM_IUPAC_SYSTEMATIC_NAME>
(5Z)-5-[[5-(2-nitrophenyl)furan-2-yl]methylidene]-2-sulfanylidene-1,3-thiazolidin-4-one

> <PUBCHEM_IUPAC_TRADITIONAL_NAME>
(5Z)-5-[[5-(2-nitrophenyl)-2-furyl]methylene]-2-thioxo-thiazolidin-4-one

> <PUBCHEM_IUPAC_INCHI>
InChI=1S/C14H8N2O4S2/c17-13-12(22-14(21)15-13)7-8-5-6-11(20-8)9-3-1-2-4-10(9)16(18)19/h1-7H,(H,15,17,21)/b12-7-

> <PUBCHEM_IUPAC_INCHIKEY>
GFDDVTZJRDWAAV-GHXNOFRVSA-N

> <PUBCHEM_XLOGP3_AA>
3.4

> <PUBCHEM_EXACT_MASS>
331.993

> <PUBCHEM_MOLECULAR_FORMULA>
C14H8N2O4S2

> <PUBCHEM_MOLECULAR_WEIGHT>
332.348

> <PUBCHEM_OPENEYE_CAN_SMILES>
C1=CC=C(C(=C1)C2=CC=C(O2)C=C3C(=O)NC(=S)S3)[N+](=O)[O-]

> <PUBCHEM_OPENEYE_ISO_SMILES>
C1=CC=C(C(=C1)C2=CC=C(O2)/C=C\3/C(=O)NC(=S)S3)[N+](=O)[O-]

> <PUBCHEM_CACTVS_TPSA>
145

> <PUBCHEM_MONOISOTOPIC_WEIGHT>
331.993

> <PUBCHEM_TOTAL_CHARGE>
0

> <PUBCHEM_HEAVY_ATOM_COUNT>
22

> <PUBCHEM_ATOM_DEF_STEREO_COUNT>
0

> <PUBCHEM_ATOM_UDEF_STEREO_COUNT>
0

> <PUBCHEM_BOND_DEF_STEREO_COUNT>
1

> <PUBCHEM_BOND_UDEF_STEREO_COUNT>
0

> <PUBCHEM_ISOTOPIC_ATOM_COUNT>
0

> <PUBCHEM_COMPONENT_COUNT>
1

> <PUBCHEM_CACTVS_TAUTO_COUNT>
3

> <PUBCHEM_COORDINATE_TYPE>
1
5
255

> <PUBCHEM_BONDANNOTATIONS>
10  13  8
10  15  8
11  14  8
12  14  8
13  18  8
15  19  8
18  20  8
19  20  8
3  11  8
3  9  8
9  12  8

$$$$
71578450
  -OEChem-11021605012D

 43 45  0     0  0  0  0  0  0999 V2000
    3.4350    0.0631    0.0000 S   0  0  0  0  0  0  0  0  0  0  0  0
    2.4644    1.5576    0.0000 S   0  0  0  0  0  0  0  0  0  0  0  0
    2.0000   -4.4062    0.0000 F   0  0  0  0  0  0  0  0  0  0  0  0
    4.5411   -2.8184    0.0000 O   0  0  0  0  0  0  0  0  0  0  0  0
    5.9076    0.8258    0.0000 O   0  0  0  0  0  0  0  0  0  0  0  0
    3.3814    5.7371    0.0000 O   0  0  0  0  0  0  0  0  0  0  0  0
    2.2224    4.4499    0.0000 O   0  0  0  0  0  0  0  0  0  0  0  0
    4.2440    1.4644    0.0000 N   0  0  0  0  0  0  0  0  0  0  0  0
    4.4519    2.4425    0.0000 C   0  0  0  0  0  0  0  0  0  0  0  0
    3.7087    3.1116    0.0000 C   0  0  0  0  0  0  0  0  0  0  0  0
    3.9166    4.0898    0.0000 C   0  0  0  0  0  0  0  0  0  0  0  0
    4.9131    0.7212    0.0000 C   0  0  0  0  0  0  0  0  0  0  0  0
    4.4131   -0.1448    0.0000 C   0  0  0  0  0  0  0  0  0  0  0  0
    3.3304    1.0576    0.0000 C   0  0  0  0  0  0  0  0  0  0  0  0
    4.8198   -1.0583    0.0000 C   0  0  0  0  0  0  0  0  0  0  0  0
    4.2320   -1.8674    0.0000 C   0  0  0  0  0  0  0  0  0  0  0  0
    3.1735    4.7589    0.0000 C   0  0  0  0  0  0  0  0  0  0  0  0
    3.7320   -3.4062    0.0000 C   0  0  0  0  0  0  0  0  0  0  0  0
    3.2320   -1.8674    0.0000 C   0  0  0  0  0  0  0  0  0  0  0  0
    3.7320   -4.4062    0.0000 C   0  0  0  0  0  0  0  0  0  0  0  0
    2.9230   -2.8184    0.0000 C   0  0  0  0  0  0  0  0  0  0  0  0
    2.8660   -4.9062    0.0000 C   0  0  0  0  0  0  0  0  0  0  0  0
    4.5981   -4.9062    0.0000 C   0  0  0  0  0  0  0  0  0  0  0  0
    2.8660   -5.9062    0.0000 C   0  0  0  0  0  0  0  0  0  0  0  0
    4.5981   -5.9062    0.0000 C   0  0  0  0  0  0  0  0  0  0  0  0
    3.7320   -6.4062    0.0000 C   0  0  0  0  0  0  0  0  0  0  0  0
    2.6383    6.4062    0.0000 C   0  0  0  0  0  0  0  0  0  0  0  0
    5.0267    2.2103    0.0000 H   0  0  0  0  0  0  0  0  0  0  0  0
    4.7804    2.9683    0.0000 H   0  0  0  0  0  0  0  0  0  0  0  0
    3.1339    3.3439    0.0000 H   0  0  0  0  0  0  0  0  0  0  0  0
    3.3802    2.5859    0.0000 H   0  0  0  0  0  0  0  0  0  0  0  0
    4.4915    3.8575    0.0000 H   0  0  0  0  0  0  0  0  0  0  0  0
    4.2452    4.6156    0.0000 H   0  0  0  0  0  0  0  0  0  0  0  0
    5.4364   -1.1232    0.0000 H   0  0  0  0  0  0  0  0  0  0  0  0
    2.8676   -1.3658    0.0000 H   0  0  0  0  0  0  0  0  0  0  0  0
    2.3334   -3.0100    0.0000 H   0  0  0  0  0  0  0  0  0  0  0  0
    5.1350   -4.5962    0.0000 H   0  0  0  0  0  0  0  0  0  0  0  0
    2.3291   -6.2162    0.0000 H   0  0  0  0  0  0  0  0  0  0  0  0
    5.1350   -6.2162    0.0000 H   0  0  0  0  0  0  0  0  0  0  0  0
    3.7320   -7.0262    0.0000 H   0  0  0  0  0  0  0  0  0  0  0  0
    3.0531    6.8670    0.0000 H   0  0  0  0  0  0  0  0  0  0  0  0
    2.1775    6.8211    0.0000 H   0  0  0  0  0  0  0  0  0  0  0  0
    2.2234    5.9455    0.0000 H   0  0  0  0  0  0  0  0  0  0  0  0
  1 13  1  0  0  0  0
  1 14  1  0  0  0  0
  2 14  2  0  0  0  0
  3 22  1  0  0  0  0
  4 16  1  0  0  0  0
  4 18  1  0  0  0  0
  5 12  2  0  0  0  0
  6 17  1  0  0  0  0
  6 27  1  0  0  0  0
  7 17  2  0  0  0  0
  8  9  1  0  0  0  0
  8 12  1  0  0  0  0
  8 14  1  0  0  0  0
  9 10  1  0  0  0  0
  9 28  1  0  0  0  0
  9 29  1  0  0  0  0
 10 11  1  0  0  0  0
 10 30  1  0  0  0  0
 10 31  1  0  0  0  0
 11 17  1  0  0  0  0
 11 32  1  0  0  0  0
 11 33  1  0  0  0  0
 12 13  1  0  0  0  0
 13 15  2  0  0  0  0
 15 16  1  0  0  0  0
 15 34  1  0  0  0  0
 16 19  2  0  0  0  0
 18 20  1  0  0  0  0
 18 21  2  0  0  0  0
 19 21  1  0  0  0  0
 19 35  1  0  0  0  0
 20 22  1  0  0  0  0
 20 23  2  0  0  0  0
 21 36  1  0  0  0  0
 22 24  2  0  0  0  0
 23 25  1  0  0  0  0
 23 37  1  0  0  0  0
 24 26  1  0  0  0  0
 24 38  1  0  0  0  0
 25 26  2  0  0  0  0
 25 39  1  0  0  0  0
 26 40  1  0  0  0  0
 27 41  1  0  0  0  0
 27 42  1  0  0  0  0
 27 43  1  0  0  0  0
M  END
> <PUBCHEM_COMPOUND_CID>
71578450

> <PUBCHEM_COMPOUND_CANONICALIZED>
1

> <PUBCHEM_CACTVS_COMPLEXITY>
627

> <PUBCHEM_CACTVS_HBOND_ACCEPTOR>
7

> <PUBCHEM_CACTVS_HBOND_DONOR>
0

> <PUBCHEM_CACTVS_ROTATABLE_BOND>
7

> <PUBCHEM_CACTVS_SUBSKEYS>
AAADceB6OQBgAAAAAAAAAAAAAAAAAWJAAAAwAAAAAAAAAAABwAAAHwQAAAAADATB2A4yDIMABEiMAqHSGACCCABkIBgIiAEOCMgMJjKEtRqGOSCkxhGIqYesyPCOAAAAAAAAAAAAAAAAAAAAAAAAAAAAAA==

> <PUBCHEM_IUPAC_OPENEYE_NAME>
methyl 4-[(5Z)-5-[[5-(2-fluorophenyl)-2-furyl]methylene]-4-oxo-2-thioxo-thiazolidin-3-yl]butanoate

> <PUBCHEM_IUPAC_CAS_NAME>
4-[(5Z)-5-[[5-(2-fluorophenyl)-2-furanyl]methylidene]-4-oxo-2-sulfanylidene-3-thiazolidinyl]butanoic acid methyl ester

> <PUBCHEM_IUPAC_NAME>
methyl 4-[(5Z)-5-[[5-(2-fluorophenyl)furan-2-yl]methylidene]-4-oxo-2-sulfanylidene-1,3-thiazolidin-3-yl]butanoate

> <PUBCHEM_IUPAC_SYSTEMATIC_NAME>
methyl 4-[(5Z)-5-[[5-(2-fluorophenyl)furan-2-yl]methylidene]-4-oxidanylidene-2-sulfanylidene-1,3-thiazolidin-3-yl]butanoate

> <PUBCHEM_IUPAC_TRADITIONAL_NAME>
4-[(5Z)-5-[[5-(2-fluorophenyl)-2-furyl]methylene]-4-keto-2-thioxo-thiazolidin-3-yl]butyric acid methyl ester

> <PUBCHEM_IUPAC_INCHI>
InChI=1S/C19H16FNO4S2/c1-24-17(22)7-4-10-21-18(23)16(27-19(21)26)11-12-8-9-15(25-12)13-5-2-3-6-14(13)20/h2-3,5-6,8-9,11H,4,7,10H2,1H3/b16-11-

> <PUBCHEM_IUPAC_INCHIKEY>
QZWLYINKSLNQJR-WJDWOHSUSA-N

> <PUBCHEM_XLOGP3_AA>
4

> <PUBCHEM_EXACT_MASS>
405.05

> <PUBCHEM_MOLECULAR_FORMULA>
C19H16FNO4S2

> <PUBCHEM_MOLECULAR_WEIGHT>
405.458

> <PUBCHEM_OPENEYE_CAN_SMILES>
COC(=O)CCCN1C(=O)C(=CC2=CC=C(O2)C3=CC=CC=C3F)SC1=S

> <PUBCHEM_OPENEYE_ISO_SMILES>
COC(=O)CCCN1C(=O)/C(=C/C2=CC=C(O2)C3=CC=CC=C3F)/SC1=S

> <PUBCHEM_CACTVS_TPSA>
117

> <PUBCHEM_MONOISOTOPIC_WEIGHT>
405.05

> <PUBCHEM_TOTAL_CHARGE>
0

> <PUBCHEM_HEAVY_ATOM_COUNT>
27

> <PUBCHEM_ATOM_DEF_STEREO_COUNT>
0

> <PUBCHEM_ATOM_UDEF_STEREO_COUNT>
0

> <PUBCHEM_BOND_DEF_STEREO_COUNT>
1

> <PUBCHEM_BOND_UDEF_STEREO_COUNT>
0

> <PUBCHEM_ISOTOPIC_ATOM_COUNT>
0

> <PUBCHEM_COMPONENT_COUNT>
1

> <PUBCHEM_CACTVS_TAUTO_COUNT>
1

> <PUBCHEM_COORDINATE_TYPE>
1
5
255

> <PUBCHEM_BONDANNOTATIONS>
16  19  8
18  21  8
19  21  8
20  22  8
20  23  8
22  24  8
23  25  8
24  26  8
25  26  8
4  16  8
4  18  8

$$$$
71578449
  -OEChem-11021605012D

 43 45  0     0  0  0  0  0  0999 V2000
    3.5096   -6.9062    0.0000 Br  0  0  0  0  0  0  0  0  0  0  0  0
    3.2125    0.5631    0.0000 S   0  0  0  0  0  0  0  0  0  0  0  0
    2.2420    2.0576    0.0000 S   0  0  0  0  0  0  0  0  0  0  0  0
    4.3186   -2.3184    0.0000 O   0  0  0  0  0  0  0  0  0  0  0  0
    5.6852    1.3258    0.0000 O   0  0  0  0  0  0  0  0  0  0  0  0
    3.1590    6.2371    0.0000 O   0  0  0  0  0  0  0  0  0  0  0  0
    2.0000    4.9499    0.0000 O   0  0  0  0  0  0  0  0  0  0  0  0
    4.0215    1.9644    0.0000 N   0  0  0  0  0  0  0  0  0  0  0  0
    4.2294    2.9425    0.0000 C   0  0  0  0  0  0  0  0  0  0  0  0
    3.4863    3.6116    0.0000 C   0  0  0  0  0  0  0  0  0  0  0  0
    3.6942    4.5898    0.0000 C   0  0  0  0  0  0  0  0  0  0  0  0
    4.6906    1.2212    0.0000 C   0  0  0  0  0  0  0  0  0  0  0  0
    4.1906    0.3552    0.0000 C   0  0  0  0  0  0  0  0  0  0  0  0
    3.1080    1.5576    0.0000 C   0  0  0  0  0  0  0  0  0  0  0  0
    4.5974   -0.5583    0.0000 C   0  0  0  0  0  0  0  0  0  0  0  0
    4.0096   -1.3674    0.0000 C   0  0  0  0  0  0  0  0  0  0  0  0
    2.9511    5.2589    0.0000 C   0  0  0  0  0  0  0  0  0  0  0  0
    3.5096   -2.9062    0.0000 C   0  0  0  0  0  0  0  0  0  0  0  0
    3.0096   -1.3674    0.0000 C   0  0  0  0  0  0  0  0  0  0  0  0
    3.5096   -3.9062    0.0000 C   0  0  0  0  0  0  0  0  0  0  0  0
    2.7006   -2.3184    0.0000 C   0  0  0  0  0  0  0  0  0  0  0  0
    2.6436   -4.4062    0.0000 C   0  0  0  0  0  0  0  0  0  0  0  0
    4.3756   -4.4062    0.0000 C   0  0  0  0  0  0  0  0  0  0  0  0
    2.6436   -5.4062    0.0000 C   0  0  0  0  0  0  0  0  0  0  0  0
    4.3756   -5.4062    0.0000 C   0  0  0  0  0  0  0  0  0  0  0  0
    3.5096   -5.9062    0.0000 C   0  0  0  0  0  0  0  0  0  0  0  0
    2.4158    6.9062    0.0000 C   0  0  0  0  0  0  0  0  0  0  0  0
    4.8043    2.7103    0.0000 H   0  0  0  0  0  0  0  0  0  0  0  0
    4.5580    3.4683    0.0000 H   0  0  0  0  0  0  0  0  0  0  0  0
    2.9114    3.8439    0.0000 H   0  0  0  0  0  0  0  0  0  0  0  0
    3.1577    3.0859    0.0000 H   0  0  0  0  0  0  0  0  0  0  0  0
    4.2691    4.3575    0.0000 H   0  0  0  0  0  0  0  0  0  0  0  0
    4.0228    5.1156    0.0000 H   0  0  0  0  0  0  0  0  0  0  0  0
    5.2140   -0.6232    0.0000 H   0  0  0  0  0  0  0  0  0  0  0  0
    2.6452   -0.8658    0.0000 H   0  0  0  0  0  0  0  0  0  0  0  0
    2.1109   -2.5100    0.0000 H   0  0  0  0  0  0  0  0  0  0  0  0
    2.1066   -4.0962    0.0000 H   0  0  0  0  0  0  0  0  0  0  0  0
    4.9126   -4.0962    0.0000 H   0  0  0  0  0  0  0  0  0  0  0  0
    2.1066   -5.7162    0.0000 H   0  0  0  0  0  0  0  0  0  0  0  0
    4.9126   -5.7162    0.0000 H   0  0  0  0  0  0  0  0  0  0  0  0
    2.8307    7.3670    0.0000 H   0  0  0  0  0  0  0  0  0  0  0  0
    1.9551    7.3211    0.0000 H   0  0  0  0  0  0  0  0  0  0  0  0
    2.0010    6.4455    0.0000 H   0  0  0  0  0  0  0  0  0  0  0  0
  1 26  1  0  0  0  0
  2 13  1  0  0  0  0
  2 14  1  0  0  0  0
  3 14  2  0  0  0  0
  4 16  1  0  0  0  0
  4 18  1  0  0  0  0
  5 12  2  0  0  0  0
  6 17  1  0  0  0  0
  6 27  1  0  0  0  0
  7 17  2  0  0  0  0
  8  9  1  0  0  0  0
  8 12  1  0  0  0  0
  8 14  1  0  0  0  0
  9 10  1  0  0  0  0
  9 28  1  0  0  0  0
  9 29  1  0  0  0  0
 10 11  1  0  0  0  0
 10 30  1  0  0  0  0
 10 31  1  0  0  0  0
 11 17  1  0  0  0  0
 11 32  1  0  0  0  0
 11 33  1  0  0  0  0
 12 13  1  0  0  0  0
 13 15  2  0  0  0  0
 15 16  1  0  0  0  0
 15 34  1  0  0  0  0
 16 19  2  0  0  0  0
 18 20  1  0  0  0  0
 18 21  2  0  0  0  0
 19 21  1  0  0  0  0
 19 35  1  0  0  0  0
 20 22  2  0  0  0  0
 20 23  1  0  0  0  0
 21 36  1  0  0  0  0
 22 24  1  0  0  0  0
 22 37  1  0  0  0  0
 23 25  2  0  0  0  0
 23 38  1  0  0  0  0
 24 26  2  0  0  0  0
 24 39  1  0  0  0  0
 25 26  1  0  0  0  0
 25 40  1  0  0  0  0
 27 41  1  0  0  0  0
 27 42  1  0  0  0  0
 27 43  1  0  0  0  0
M  END
> <PUBCHEM_COMPOUND_CID>
71578449

> <PUBCHEM_COMPOUND_CANONICALIZED>
1

> <PUBCHEM_CACTVS_COMPLEXITY>
619

> <PUBCHEM_CACTVS_HBOND_ACCEPTOR>
6

> <PUBCHEM_CACTVS_HBOND_DONOR>
0

> <PUBCHEM_CACTVS_ROTATABLE_BOND>
7

> <PUBCHEM_CACTVS_SUBSKEYS>
AAADceB6OABgEAAAAAAAAAAAAAAAAWJAAAAwAAAAAAAAAAABwAAAHgRAAAABrATB2AYyDIMABEiMAqHSGACCCABkIBwIiAEOCOgMJjKEtRqGOSCkxhGIq5esyPCOAgAAAAAAAAAEAAAAAAAAAAAAAAAAAA==

> <PUBCHEM_IUPAC_OPENEYE_NAME>
methyl 4-[(5Z)-5-[[5-(4-bromophenyl)-2-furyl]methylene]-4-oxo-2-thioxo-thiazolidin-3-yl]butanoate

> <PUBCHEM_IUPAC_CAS_NAME>
4-[(5Z)-5-[[5-(4-bromophenyl)-2-furanyl]methylidene]-4-oxo-2-sulfanylidene-3-thiazolidinyl]butanoic acid methyl ester

> <PUBCHEM_IUPAC_NAME>
methyl 4-[(5Z)-5-[[5-(4-bromophenyl)furan-2-yl]methylidene]-4-oxo-2-sulfanylidene-1,3-thiazolidin-3-yl]butanoate

> <PUBCHEM_IUPAC_SYSTEMATIC_NAME>
methyl 4-[(5Z)-5-[[5-(4-bromophenyl)furan-2-yl]methylidene]-4-oxidanylidene-2-sulfanylidene-1,3-thiazolidin-3-yl]butanoate

> <PUBCHEM_IUPAC_TRADITIONAL_NAME>
4-[(5Z)-5-[[5-(4-bromophenyl)-2-furyl]methylene]-4-keto-2-thioxo-thiazolidin-3-yl]butyric acid methyl ester

> <PUBCHEM_IUPAC_INCHI>
InChI=1S/C19H16BrNO4S2/c1-24-17(22)3-2-10-21-18(23)16(27-19(21)26)11-14-8-9-15(25-14)12-4-6-13(20)7-5-12/h4-9,11H,2-3,10H2,1H3/b16-11-

> <PUBCHEM_IUPAC_INCHIKEY>
ZWFXJAXGWFJFCG-WJDWOHSUSA-N

> <PUBCHEM_XLOGP3_AA>
4.6

> <PUBCHEM_EXACT_MASS>
464.97

> <PUBCHEM_MOLECULAR_FORMULA>
C19H16BrNO4S2

> <PUBCHEM_MOLECULAR_WEIGHT>
466.364

> <PUBCHEM_OPENEYE_CAN_SMILES>
COC(=O)CCCN1C(=O)C(=CC2=CC=C(O2)C3=CC=C(C=C3)Br)SC1=S

> <PUBCHEM_OPENEYE_ISO_SMILES>
COC(=O)CCCN1C(=O)/C(=C/C2=CC=C(O2)C3=CC=C(C=C3)Br)/SC1=S

> <PUBCHEM_CACTVS_TPSA>
117

> <PUBCHEM_MONOISOTOPIC_WEIGHT>
464.97

> <PUBCHEM_TOTAL_CHARGE>
0

> <PUBCHEM_HEAVY_ATOM_COUNT>
27

> <PUBCHEM_ATOM_DEF_STEREO_COUNT>
0

> <PUBCHEM_ATOM_UDEF_STEREO_COUNT>
0

> <PUBCHEM_BOND_DEF_STEREO_COUNT>
1

> <PUBCHEM_BOND_UDEF_STEREO_COUNT>
0

> <PUBCHEM_ISOTOPIC_ATOM_COUNT>
0

> <PUBCHEM_COMPONENT_COUNT>
1

> <PUBCHEM_CACTVS_TAUTO_COUNT>
1

> <PUBCHEM_COORDINATE_TYPE>
1
5
255

> <PUBCHEM_BONDANNOTATIONS>
16  19  8
18  21  8
19  21  8
20  22  8
20  23  8
22  24  8
23  25  8
24  26  8
25  26  8
4  16  8
4  18  8

$$$$
1201167
  -OEChem-11021605012D

 33 35  0     0  0  0  0  0  0999 V2000
    3.2601    1.5546    0.0000 S   0  0  0  0  0  0  0  0  0  0  0  0
    2.0000    0.2945    0.0000 S   0  0  0  0  0  0  0  0  0  0  0  0
    5.5202    0.2945    0.0000 O   0  0  0  0  0  0  0  0  0  0  0  0
    2.8940   -4.4842    0.0000 O   0  0  0  0  0  0  0  0  0  0  0  0
    4.6261   -4.4842    0.0000 O   0  0  0  0  0  0  0  0  0  0  0  0
    3.7601    0.0158    0.0000 N   0  0  0  0  0  0  0  0  0  0  0  0
    3.0399    4.2952    0.0000 N   0  0  0  0  0  0  0  0  0  0  0  0
    3.7601   -0.9842    0.0000 C   0  0  0  0  0  0  0  0  0  0  0  0
    4.5691    0.6035    0.0000 C   0  0  0  0  0  0  0  0  0  0  0  0
    4.2601    1.5546    0.0000 C   0  0  0  0  0  0  0  0  0  0  0  0
    2.9511    0.6035    0.0000 C   0  0  0  0  0  0  0  0  0  0  0  0
    2.8940   -1.4842    0.0000 C   0  0  0  0  0  0  0  0  0  0  0  0
    4.6261   -1.4842    0.0000 C   0  0  0  0  0  0  0  0  0  0  0  0
    4.8479    2.3636    0.0000 C   0  0  0  0  0  0  0  0  0  0  0  0
    3.7601   -2.9842    0.0000 C   0  0  0  0  0  0  0  0  0  0  0  0
    2.8940   -2.4842    0.0000 C   0  0  0  0  0  0  0  0  0  0  0  0
    4.6261   -2.4842    0.0000 C   0  0  0  0  0  0  0  0  0  0  0  0
    4.4411    3.2772    0.0000 C   0  0  0  0  0  0  0  0  0  0  0  0
    5.0289    4.0862    0.0000 C   0  0  0  0  0  0  0  0  0  0  0  0
    3.4466    3.3817    0.0000 C   0  0  0  0  0  0  0  0  0  0  0  0
    3.7601   -3.9842    0.0000 C   0  0  0  0  0  0  0  0  0  0  0  0
    4.6222    4.9997    0.0000 C   0  0  0  0  0  0  0  0  0  0  0  0
    3.6276    5.1043    0.0000 C   0  0  0  0  0  0  0  0  0  0  0  0
    2.3571   -1.1742    0.0000 H   0  0  0  0  0  0  0  0  0  0  0  0
    5.1630   -1.1742    0.0000 H   0  0  0  0  0  0  0  0  0  0  0  0
    5.4645    2.2988    0.0000 H   0  0  0  0  0  0  0  0  0  0  0  0
    2.3571   -2.7942    0.0000 H   0  0  0  0  0  0  0  0  0  0  0  0
    5.1630   -2.7942    0.0000 H   0  0  0  0  0  0  0  0  0  0  0  0
    5.6455    4.0214    0.0000 H   0  0  0  0  0  0  0  0  0  0  0  0
    3.0822    2.8801    0.0000 H   0  0  0  0  0  0  0  0  0  0  0  0
    4.9866    5.5013    0.0000 H   0  0  0  0  0  0  0  0  0  0  0  0
    3.3755    5.6706    0.0000 H   0  0  0  0  0  0  0  0  0  0  0  0
    2.8940   -5.1043    0.0000 H   0  0  0  0  0  0  0  0  0  0  0  0
  1 10  1  0  0  0  0
  1 11  1  0  0  0  0
  2 11  2  0  0  0  0
  3  9  2  0  0  0  0
  4 21  1  0  0  0  0
  4 33  1  0  0  0  0
  5 21  2  0  0  0  0
  6  8  1  0  0  0  0
  6  9  1  0  0  0  0
  6 11  1  0  0  0  0
  7 20  1  0  0  0  0
  7 23  2  0  0  0  0
  8 12  2  0  0  0  0
  8 13  1  0  0  0  0
  9 10  1  0  0  0  0
 10 14  2  0  0  0  0
 12 16  1  0  0  0  0
 12 24  1  0  0  0  0
 13 17  2  0  0  0  0
 13 25  1  0  0  0  0
 14 18  1  0  0  0  0
 14 26  1  0  0  0  0
 15 16  2  0  0  0  0
 15 17  1  0  0  0  0
 15 21  1  0  0  0  0
 16 27  1  0  0  0  0
 17 28  1  0  0  0  0
 18 19  1  0  0  0  0
 18 20  2  0  0  0  0
 19 22  2  0  0  0  0
 19 29  1  0  0  0  0
 20 30  1  0  0  0  0
 22 23  1  0  0  0  0
 22 31  1  0  0  0  0
 23 32  1  0  0  0  0
M  END
> <PUBCHEM_COMPOUND_CID>
1201167

> <PUBCHEM_COMPOUND_CANONICALIZED>
1

> <PUBCHEM_CACTVS_COMPLEXITY>
541

> <PUBCHEM_CACTVS_HBOND_ACCEPTOR>
6

> <PUBCHEM_CACTVS_HBOND_DONOR>
1

> <PUBCHEM_CACTVS_ROTATABLE_BOND>
3

> <PUBCHEM_CACTVS_SUBSKEYS>
AAADccB7MABgAAAAAAAAAAAAAAAAAWAAAAA8QAAAAAAAAAABwAAAHgQACAAADAjB2gQ8yJMIEgisAjX3XACCgCB1AjgI2CE4bNgIJvLAlZGEcQhkxAHI2YeY2SOeCAAAAAAAAAAQAAAAAAAAAAAAAAAAAA==

> <PUBCHEM_IUPAC_OPENEYE_NAME>
4-[(5Z)-4-oxo-5-(3-pyridylmethylene)-2-thioxo-thiazolidin-3-yl]benzoic acid

> <PUBCHEM_IUPAC_CAS_NAME>
4-[(5Z)-4-oxo-5-(3-pyridinylmethylidene)-2-sulfanylidene-3-thiazolidinyl]benzoic acid

> <PUBCHEM_IUPAC_NAME>
4-[(5Z)-4-oxo-5-(pyridin-3-ylmethylidene)-2-sulfanylidene-1,3-thiazolidin-3-yl]benzoic acid

> <PUBCHEM_IUPAC_SYSTEMATIC_NAME>
4-[(5Z)-4-oxidanylidene-5-(pyridin-3-ylmethylidene)-2-sulfanylidene-1,3-thiazolidin-3-yl]benzoic acid

> <PUBCHEM_IUPAC_TRADITIONAL_NAME>
4-[(5Z)-4-keto-5-(3-pyridylmethylene)-2-thioxo-thiazolidin-3-yl]benzoic acid

> <PUBCHEM_IUPAC_INCHI>
InChI=1S/C16H10N2O3S2/c19-14-13(8-10-2-1-7-17-9-10)23-16(22)18(14)12-5-3-11(4-6-12)15(20)21/h1-9H,(H,20,21)/b13-8-

> <PUBCHEM_IUPAC_INCHIKEY>
JKKCRRFBFGBHPL-JYRVWZFOSA-N

> <PUBCHEM_XLOGP3_AA>
3

> <PUBCHEM_EXACT_MASS>
342.013

> <PUBCHEM_MOLECULAR_FORMULA>
C16H10N2O3S2

> <PUBCHEM_MOLECULAR_WEIGHT>
342.387

> <PUBCHEM_OPENEYE_CAN_SMILES>
C1=CC(=CN=C1)C=C2C(=O)N(C(=S)S2)C3=CC=C(C=C3)C(=O)O

> <PUBCHEM_OPENEYE_ISO_SMILES>
C1=CC(=CN=C1)/C=C\2/C(=O)N(C(=S)S2)C3=CC=C(C=C3)C(=O)O

> <PUBCHEM_CACTVS_TPSA>
128

> <PUBCHEM_MONOISOTOPIC_WEIGHT>
342.013

> <PUBCHEM_TOTAL_CHARGE>
0

> <PUBCHEM_HEAVY_ATOM_COUNT>
23

> <PUBCHEM_ATOM_DEF_STEREO_COUNT>
0

> <PUBCHEM_ATOM_UDEF_STEREO_COUNT>
0

> <PUBCHEM_BOND_DEF_STEREO_COUNT>
1

> <PUBCHEM_BOND_UDEF_STEREO_COUNT>
0

> <PUBCHEM_ISOTOPIC_ATOM_COUNT>
0

> <PUBCHEM_COMPONENT_COUNT>
1

> <PUBCHEM_CACTVS_TAUTO_COUNT>
1

> <PUBCHEM_COORDINATE_TYPE>
1
5
255

> <PUBCHEM_BONDANNOTATIONS>
12  16  8
13  17  8
15  16  8
15  17  8
18  19  8
18  20  8
19  22  8
22  23  8
7  20  8
7  23  8
8  12  8
8  13  8

$$$$
1377508
  -OEChem-11021605012D

 21 22  0     0  0  0  0  0  0999 V2000
    2.0000   -2.6344    0.0000 Br  0  0  0  0  0  0  0  0  0  0  0  0
    5.5116    0.4588    0.0000 S   0  0  0  0  0  0  0  0  0  0  0  0
    7.1753    1.0975    0.0000 S   0  0  0  0  0  0  0  0  0  0  0  0
    3.9595    2.5292    0.0000 O   0  0  0  0  0  0  0  0  0  0  0  0
    5.6808    2.0680    0.0000 N   0  0  0  0  0  0  0  0  0  0  0  0
    3.7320   -0.6344    0.0000 C   0  0  0  0  0  0  0  0  0  0  0  0
    4.5981    0.8656    0.0000 C   0  0  0  0  0  0  0  0  0  0  0  0
    3.7320    0.3656    0.0000 C   0  0  0  0  0  0  0  0  0  0  0  0
    4.7026    1.8601    0.0000 C   0  0  0  0  0  0  0  0  0  0  0  0
    2.8660   -1.1344    0.0000 C   0  0  0  0  0  0  0  0  0  0  0  0
    4.5981   -1.1344    0.0000 C   0  0  0  0  0  0  0  0  0  0  0  0
    2.8660   -2.1344    0.0000 C   0  0  0  0  0  0  0  0  0  0  0  0
    4.5981   -2.1344    0.0000 C   0  0  0  0  0  0  0  0  0  0  0  0
    6.1808    1.2020    0.0000 C   0  0  0  0  0  0  0  0  0  0  0  0
    3.7320   -2.6344    0.0000 C   0  0  0  0  0  0  0  0  0  0  0  0
    3.1951    0.6756    0.0000 H   0  0  0  0  0  0  0  0  0  0  0  0
    2.3291   -0.8244    0.0000 H   0  0  0  0  0  0  0  0  0  0  0  0
    5.1350   -0.8244    0.0000 H   0  0  0  0  0  0  0  0  0  0  0  0
    5.9329    2.6344    0.0000 H   0  0  0  0  0  0  0  0  0  0  0  0
    5.1350   -2.4444    0.0000 H   0  0  0  0  0  0  0  0  0  0  0  0
    3.7320   -3.2544    0.0000 H   0  0  0  0  0  0  0  0  0  0  0  0
  1 12  1  0  0  0  0
  2  7  1  0  0  0  0
  2 14  1  0  0  0  0
  3 14  2  0  0  0  0
  4  9  2  0  0  0  0
  5  9  1  0  0  0  0
  5 14  1  0  0  0  0
  5 19  1  0  0  0  0
  6  8  1  0  0  0  0
  6 10  2  0  0  0  0
  6 11  1  0  0  0  0
  7  8  2  0  0  0  0
  7  9  1  0  0  0  0
  8 16  1  0  0  0  0
 10 12  1  0  0  0  0
 10 17  1  0  0  0  0
 11 13  2  0  0  0  0
 11 18  1  0  0  0  0
 12 15  2  0  0  0  0
 13 15  1  0  0  0  0
 13 20  1  0  0  0  0
 15 21  1  0  0  0  0
M  END
> <PUBCHEM_COMPOUND_CID>
1377508

> <PUBCHEM_COMPOUND_CANONICALIZED>
1

> <PUBCHEM_CACTVS_COMPLEXITY>
329

> <PUBCHEM_CACTVS_HBOND_ACCEPTOR>
3

> <PUBCHEM_CACTVS_HBOND_DONOR>
1

> <PUBCHEM_CACTVS_ROTATABLE_BOND>
1

> <PUBCHEM_CACTVS_SUBSKEYS>
AAADcYByIABgEAAAAAAAAAAAAAAAAWAAAAAwAAAAAAAAAAABAAAAHgRQAAABrACB2AAwAILAAAiMAiFSEACCAABgAB0IiAAAAOgIICKAERCAIAAggAAIi5cAgAAOAAAAEAAAAAAAAAAgAAAAAAAAAAAAAA==

> <PUBCHEM_IUPAC_OPENEYE_NAME>
(5Z)-5-[(3-bromophenyl)methylene]-2-thioxo-thiazolidin-4-one

> <PUBCHEM_IUPAC_CAS_NAME>
(5Z)-5-[(3-bromophenyl)methylidene]-2-sulfanylidene-4-thiazolidinone

> <PUBCHEM_IUPAC_NAME>
(5Z)-5-[(3-bromophenyl)methylidene]-2-sulfanylidene-1,3-thiazolidin-4-one

> <PUBCHEM_IUPAC_SYSTEMATIC_NAME>
(5Z)-5-[(3-bromophenyl)methylidene]-2-sulfanylidene-1,3-thiazolidin-4-one

> <PUBCHEM_IUPAC_TRADITIONAL_NAME>
(5Z)-5-(3-bromobenzylidene)-2-thioxo-thiazolidin-4-one

> <PUBCHEM_IUPAC_INCHI>
InChI=1S/C10H6BrNOS2/c11-7-3-1-2-6(4-7)5-8-9(13)12-10(14)15-8/h1-5H,(H,12,13,14)/b8-5-

> <PUBCHEM_IUPAC_INCHIKEY>
OTYMLMRHOPDJMX-YVMONPNESA-N

> <PUBCHEM_XLOGP3_AA>
3.5

> <PUBCHEM_EXACT_MASS>
298.907

> <PUBCHEM_MOLECULAR_FORMULA>
C10H6BrNOS2

> <PUBCHEM_MOLECULAR_WEIGHT>
300.188

> <PUBCHEM_OPENEYE_CAN_SMILES>
C1=CC(=CC(=C1)Br)C=C2C(=O)NC(=S)S2

> <PUBCHEM_OPENEYE_ISO_SMILES>
C1=CC(=CC(=C1)Br)/C=C\2/C(=O)NC(=S)S2

> <PUBCHEM_CACTVS_TPSA>
86.5

> <PUBCHEM_MONOISOTOPIC_WEIGHT>
298.907

> <PUBCHEM_TOTAL_CHARGE>
0

> <PUBCHEM_HEAVY_ATOM_COUNT>
15

> <PUBCHEM_ATOM_DEF_STEREO_COUNT>
0

> <PUBCHEM_ATOM_UDEF_STEREO_COUNT>
0

> <PUBCHEM_BOND_DEF_STEREO_COUNT>
1

> <PUBCHEM_BOND_UDEF_STEREO_COUNT>
0

> <PUBCHEM_ISOTOPIC_ATOM_COUNT>
0

> <PUBCHEM_COMPONENT_COUNT>
1

> <PUBCHEM_CACTVS_TAUTO_COUNT>
3

> <PUBCHEM_COORDINATE_TYPE>
1
5
255

> <PUBCHEM_BONDANNOTATIONS>
10  12  8
11  13  8
12  15  8
13  15  8
6  10  8
6  11  8

$$$$
1636949
  -OEChem-11021605012D

 33 35  0     0  0  0  0  0  0999 V2000
    2.0000   -0.8693    0.0000 Cl  0  0  0  0  0  0  0  0  0  0  0  0
    3.7320   -3.8693    0.0000 Cl  0  0  0  0  0  0  0  0  0  0  0  0
    5.5116    0.2240    0.0000 S   0  0  0  0  0  0  0  0  0  0  0  0
    7.1753    0.8626    0.0000 S   0  0  0  0  0  0  0  0  0  0  0  0
    3.9595    2.2944    0.0000 O   0  0  0  0  0  0  0  0  0  0  0  0
    5.6808    1.8331    0.0000 N   0  0  0  0  0  0  0  0  0  0  0  0
    6.0875    2.7467    0.0000 N   0  0  0  0  0  0  0  0  0  0  0  0
    4.5981    0.6307    0.0000 C   0  0  0  0  0  0  0  0  0  0  0  0
    4.7026    1.6252    0.0000 C   0  0  0  0  0  0  0  0  0  0  0  0
    3.7320   -0.8693    0.0000 C   0  0  0  0  0  0  0  0  0  0  0  0
    3.7320    0.1307    0.0000 C   0  0  0  0  0  0  0  0  0  0  0  0
    7.0820    2.8512    0.0000 C   0  0  0  0  0  0  0  0  0  0  0  0
    6.1808    0.9671    0.0000 C   0  0  0  0  0  0  0  0  0  0  0  0
    2.8660   -1.3693    0.0000 C   0  0  0  0  0  0  0  0  0  0  0  0
    4.5981   -1.3693    0.0000 C   0  0  0  0  0  0  0  0  0  0  0  0
    7.6698    2.0422    0.0000 C   0  0  0  0  0  0  0  0  0  0  0  0
    7.4888    3.7648    0.0000 C   0  0  0  0  0  0  0  0  0  0  0  0
    2.8660   -2.3693    0.0000 C   0  0  0  0  0  0  0  0  0  0  0  0
    4.5981   -2.3693    0.0000 C   0  0  0  0  0  0  0  0  0  0  0  0
    8.6643    2.1467    0.0000 C   0  0  0  0  0  0  0  0  0  0  0  0
    8.4833    3.8693    0.0000 C   0  0  0  0  0  0  0  0  0  0  0  0
    3.7320   -2.8693    0.0000 C   0  0  0  0  0  0  0  0  0  0  0  0
    9.0710    3.0603    0.0000 C   0  0  0  0  0  0  0  0  0  0  0  0
    5.7231    3.2483    0.0000 H   0  0  0  0  0  0  0  0  0  0  0  0
    3.1951    0.4407    0.0000 H   0  0  0  0  0  0  0  0  0  0  0  0
    5.1350   -1.0593    0.0000 H   0  0  0  0  0  0  0  0  0  0  0  0
    7.4176    1.4758    0.0000 H   0  0  0  0  0  0  0  0  0  0  0  0
    7.1243    4.2664    0.0000 H   0  0  0  0  0  0  0  0  0  0  0  0
    2.3291   -2.6793    0.0000 H   0  0  0  0  0  0  0  0  0  0  0  0
    5.1350   -2.6793    0.0000 H   0  0  0  0  0  0  0  0  0  0  0  0
    9.0287    1.6451    0.0000 H   0  0  0  0  0  0  0  0  0  0  0  0
    8.7354    4.4357    0.0000 H   0  0  0  0  0  0  0  0  0  0  0  0
    9.6877    3.1251    0.0000 H   0  0  0  0  0  0  0  0  0  0  0  0
  1 14  1  0  0  0  0
  2 22  1  0  0  0  0
  3  8  1  0  0  0  0
  3 13  1  0  0  0  0
  4 13  2  0  0  0  0
  5  9  2  0  0  0  0
  6  7  1  0  0  0  0
  6  9  1  0  0  0  0
  6 13  1  0  0  0  0
  7 12  1  0  0  0  0
  7 24  1  0  0  0  0
  8  9  1  0  0  0  0
  8 11  2  0  0  0  0
 10 11  1  0  0  0  0
 10 14  2  0  0  0  0
 10 15  1  0  0  0  0
 11 25  1  0  0  0  0
 12 16  2  0  0  0  0
 12 17  1  0  0  0  0
 14 18  1  0  0  0  0
 15 19  2  0  0  0  0
 15 26  1  0  0  0  0
 16 20  1  0  0  0  0
 16 27  1  0  0  0  0
 17 21  2  0  0  0  0
 17 28  1  0  0  0  0
 18 22  2  0  0  0  0
 18 29  1  0  0  0  0
 19 22  1  0  0  0  0
 19 30  1  0  0  0  0
 20 23  2  0  0  0  0
 20 31  1  0  0  0  0
 21 23  1  0  0  0  0
 21 32  1  0  0  0  0
 23 33  1  0  0  0  0
M  END
> <PUBCHEM_COMPOUND_CID>
1636949

> <PUBCHEM_COMPOUND_CANONICALIZED>
1

> <PUBCHEM_CACTVS_COMPLEXITY>
508

> <PUBCHEM_CACTVS_HBOND_ACCEPTOR>
4

> <PUBCHEM_CACTVS_HBOND_DONOR>
1

> <PUBCHEM_CACTVS_ROTATABLE_BOND>
3

> <PUBCHEM_CACTVS_SUBSKEYS>
AAADccB7IABmAAAAAAAAAAAAAAAAAWAAAAAwYAAAAAAAAAABQAAAHgYYAAAADAqB2CAwwIJiAAiMAiVSUACCBABgBxgaqAAAZsgIICKBk5GAIABgkAAIyYcQgAAOBAAAAACBAAAIAAAAAQIAAAAAAAAAAA==

> <PUBCHEM_IUPAC_OPENEYE_NAME>
(5Z)-3-anilino-5-[(2,4-dichlorophenyl)methylene]-2-thioxo-thiazolidin-4-one

> <PUBCHEM_IUPAC_CAS_NAME>
(5Z)-3-anilino-5-[(2,4-dichlorophenyl)methylidene]-2-sulfanylidene-4-thiazolidinone

> <PUBCHEM_IUPAC_NAME>
(5Z)-3-anilino-5-[(2,4-dichlorophenyl)methylidene]-2-sulfanylidene-1,3-thiazolidin-4-one

> <PUBCHEM_IUPAC_SYSTEMATIC_NAME>
(5Z)-5-[(2,4-dichlorophenyl)methylidene]-3-phenylazanyl-2-sulfanylidene-1,3-thiazolidin-4-one

> <PUBCHEM_IUPAC_TRADITIONAL_NAME>
(5Z)-3-anilino-5-(2,4-dichlorobenzylidene)-2-thioxo-thiazolidin-4-one

> <PUBCHEM_IUPAC_INCHI>
InChI=1S/C16H10Cl2N2OS2/c17-11-7-6-10(13(18)9-11)8-14-15(21)20(16(22)23-14)19-12-4-2-1-3-5-12/h1-9,19H/b14-8-

> <PUBCHEM_IUPAC_INCHIKEY>
RZURXWTWXDLPAH-ZSOIEALJSA-N

> <PUBCHEM_XLOGP3_AA>
6.1

> <PUBCHEM_EXACT_MASS>
379.961

> <PUBCHEM_MOLECULAR_FORMULA>
C16H10Cl2N2OS2

> <PUBCHEM_MOLECULAR_WEIGHT>
381.289

> <PUBCHEM_OPENEYE_CAN_SMILES>
C1=CC=C(C=C1)NN2C(=O)C(=CC3=C(C=C(C=C3)Cl)Cl)SC2=S

> <PUBCHEM_OPENEYE_ISO_SMILES>
C1=CC=C(C=C1)NN2C(=O)/C(=C/C3=C(C=C(C=C3)Cl)Cl)/SC2=S

> <PUBCHEM_CACTVS_TPSA>
89.7

> <PUBCHEM_MONOISOTOPIC_WEIGHT>
379.961

> <PUBCHEM_TOTAL_CHARGE>
0

> <PUBCHEM_HEAVY_ATOM_COUNT>
23

> <PUBCHEM_ATOM_DEF_STEREO_COUNT>
0

> <PUBCHEM_ATOM_UDEF_STEREO_COUNT>
0

> <PUBCHEM_BOND_DEF_STEREO_COUNT>
1

> <PUBCHEM_BOND_UDEF_STEREO_COUNT>
0

> <PUBCHEM_ISOTOPIC_ATOM_COUNT>
0

> <PUBCHEM_COMPONENT_COUNT>
1

> <PUBCHEM_CACTVS_TAUTO_COUNT>
1

> <PUBCHEM_COORDINATE_TYPE>
1
5
255

> <PUBCHEM_BONDANNOTATIONS>
10  14  8
10  15  8
12  16  8
12  17  8
14  18  8
15  19  8
16  20  8
17  21  8
18  22  8
19  22  8
20  23  8
21  23  8

$$$$
1201118
  -OEChem-11021605012D

 24 25  0     0  0  0  0  0  0999 V2000
    3.2601    0.5086    0.0000 S   0  0  0  0  0  0  0  0  0  0  0  0
    2.0000   -0.7515    0.0000 S   0  0  0  0  0  0  0  0  0  0  0  0
    3.4630    2.4390    0.0000 O   0  0  0  0  0  0  0  0  0  0  0  0
    5.5202   -0.7515    0.0000 O   0  0  0  0  0  0  0  0  0  0  0  0
    2.8940   -3.5303    0.0000 O   0  0  0  0  0  0  0  0  0  0  0  0
    2.0280   -2.0303    0.0000 O   0  0  0  0  0  0  0  0  0  0  0  0
    3.7601   -1.0303    0.0000 N   0  0  0  0  0  0  0  0  0  0  0  0
    4.2601    0.5086    0.0000 C   0  0  0  0  0  0  0  0  0  0  0  0
    4.5691   -0.4425    0.0000 C   0  0  0  0  0  0  0  0  0  0  0  0
    3.7601   -2.0303    0.0000 C   0  0  0  0  0  0  0  0  0  0  0  0
    2.9511   -0.4425    0.0000 C   0  0  0  0  0  0  0  0  0  0  0  0
    4.8479    1.3176    0.0000 C   0  0  0  0  0  0  0  0  0  0  0  0
    4.4411    2.2311    0.0000 C   0  0  0  0  0  0  0  0  0  0  0  0
    2.8940   -2.5303    0.0000 C   0  0  0  0  0  0  0  0  0  0  0  0
    4.9411    3.0971    0.0000 C   0  0  0  0  0  0  0  0  0  0  0  0
    4.2720    3.8403    0.0000 C   0  0  0  0  0  0  0  0  0  0  0  0
    3.3584    3.4336    0.0000 C   0  0  0  0  0  0  0  0  0  0  0  0
    3.9721   -2.6129    0.0000 H   0  0  0  0  0  0  0  0  0  0  0  0
    4.3707   -1.9226    0.0000 H   0  0  0  0  0  0  0  0  0  0  0  0
    5.4645    1.2528    0.0000 H   0  0  0  0  0  0  0  0  0  0  0  0
    5.5577    3.1620    0.0000 H   0  0  0  0  0  0  0  0  0  0  0  0
    4.4009    4.4467    0.0000 H   0  0  0  0  0  0  0  0  0  0  0  0
    2.8215    3.7436    0.0000 H   0  0  0  0  0  0  0  0  0  0  0  0
    2.3571   -3.8403    0.0000 H   0  0  0  0  0  0  0  0  0  0  0  0
  1  8  1  0  0  0  0
  1 11  1  0  0  0  0
  2 11  2  0  0  0  0
  3 13  1  0  0  0  0
  3 17  1  0  0  0  0
  4  9  2  0  0  0  0
  5 14  1  0  0  0  0
  5 24  1  0  0  0  0
  6 14  2  0  0  0  0
  7  9  1  0  0  0  0
  7 10  1  0  0  0  0
  7 11  1  0  0  0  0
  8  9  1  0  0  0  0
  8 12  2  0  0  0  0
 10 14  1  0  0  0  0
 10 18  1  0  0  0  0
 10 19  1  0  0  0  0
 12 13  1  0  0  0  0
 12 20  1  0  0  0  0
 13 15  2  0  0  0  0
 15 16  1  0  0  0  0
 15 21  1  0  0  0  0
 16 17  2  0  0  0  0
 16 22  1  0  0  0  0
 17 23  1  0  0  0  0
M  END
> <PUBCHEM_COMPOUND_CID>
1201118

> <PUBCHEM_COMPOUND_CANONICALIZED>
1

> <PUBCHEM_CACTVS_COMPLEXITY>
407

> <PUBCHEM_CACTVS_HBOND_ACCEPTOR>
6

> <PUBCHEM_CACTVS_HBOND_DONOR>
1

> <PUBCHEM_CACTVS_ROTATABLE_BOND>
3

> <PUBCHEM_CACTVS_SUBSKEYS>
AAADcYByOABgAAAAAAAAAAAAAAAAAWJAAAAAAAAAAAAAAAABgAAAHgQACAAACATh0AYwDIMABkiMAKnSmACCCABkIBgIiAGOCMgOJjKENTqCGSCkxhGYqYaIAAAAAAAAAAAAAAAAAAAAAAAAAAAAAAAAAA==

> <PUBCHEM_IUPAC_OPENEYE_NAME>
2-[(5Z)-5-(2-furylmethylene)-4-oxo-2-thioxo-thiazolidin-3-yl]acetic acid

> <PUBCHEM_IUPAC_CAS_NAME>
2-[(5Z)-5-(2-furanylmethylidene)-4-oxo-2-sulfanylidene-3-thiazolidinyl]acetic acid

> <PUBCHEM_IUPAC_NAME>
2-[(5Z)-5-(furan-2-ylmethylidene)-4-oxo-2-sulfanylidene-1,3-thiazolidin-3-yl]acetic acid

> <PUBCHEM_IUPAC_SYSTEMATIC_NAME>
2-[(5Z)-5-(furan-2-ylmethylidene)-4-oxidanylidene-2-sulfanylidene-1,3-thiazolidin-3-yl]ethanoic acid

> <PUBCHEM_IUPAC_TRADITIONAL_NAME>
2-[(5Z)-5-(2-furfurylidene)-4-keto-2-thioxo-thiazolidin-3-yl]acetic acid

> <PUBCHEM_IUPAC_INCHI>
InChI=1S/C10H7NO4S2/c12-8(13)5-11-9(14)7(17-10(11)16)4-6-2-1-3-15-6/h1-4H,5H2,(H,12,13)/b7-4-

> <PUBCHEM_IUPAC_INCHIKEY>
DFCZJGAFQKNSEX-DAXSKMNVSA-N

> <PUBCHEM_XLOGP3_AA>
1.7

> <PUBCHEM_EXACT_MASS>
268.982

> <PUBCHEM_MOLECULAR_FORMULA>
C10H7NO4S2

> <PUBCHEM_MOLECULAR_WEIGHT>
269.289

> <PUBCHEM_OPENEYE_CAN_SMILES>
C1=COC(=C1)C=C2C(=O)N(C(=S)S2)CC(=O)O

> <PUBCHEM_OPENEYE_ISO_SMILES>
C1=COC(=C1)/C=C\2/C(=O)N(C(=S)S2)CC(=O)O

> <PUBCHEM_CACTVS_TPSA>
128

> <PUBCHEM_MONOISOTOPIC_WEIGHT>
268.982

> <PUBCHEM_TOTAL_CHARGE>
0

> <PUBCHEM_HEAVY_ATOM_COUNT>
17

> <PUBCHEM_ATOM_DEF_STEREO_COUNT>
0

> <PUBCHEM_ATOM_UDEF_STEREO_COUNT>
0

> <PUBCHEM_BOND_DEF_STEREO_COUNT>
1

> <PUBCHEM_BOND_UDEF_STEREO_COUNT>
0

> <PUBCHEM_ISOTOPIC_ATOM_COUNT>
0

> <PUBCHEM_COMPONENT_COUNT>
1

> <PUBCHEM_CACTVS_TAUTO_COUNT>
1

> <PUBCHEM_COORDINATE_TYPE>
1
5
255

> <PUBCHEM_BONDANNOTATIONS>
13  15  8
15  16  8
16  17  8
3  13  8
3  17  8

$$$$
1594457
  -OEChem-11021605012D

 38 41  0     0  0  0  0  0  0999 V2000
    2.0000   -5.3916    0.0000 Cl  0  0  0  0  0  0  0  0  0  0  0  0
    3.7321   -6.3916    0.0000 Cl  0  0  0  0  0  0  0  0  0  0  0  0
    3.4350    1.0777    0.0000 S   0  0  0  0  0  0  0  0  0  0  0  0
    2.4644    2.5723    0.0000 S   0  0  0  0  0  0  0  0  0  0  0  0
    5.0756    6.3916    0.0000 F   0  0  0  0  0  0  0  0  0  0  0  0
    4.5411   -1.8038    0.0000 O   0  0  0  0  0  0  0  0  0  0  0  0
    5.9076    1.8404    0.0000 O   0  0  0  0  0  0  0  0  0  0  0  0
    4.2440    2.4790    0.0000 N   0  0  0  0  0  0  0  0  0  0  0  0
    4.4131    0.8698    0.0000 C   0  0  0  0  0  0  0  0  0  0  0  0
    4.4519    3.4571    0.0000 C   0  0  0  0  0  0  0  0  0  0  0  0
    4.2321   -0.8527    0.0000 C   0  0  0  0  0  0  0  0  0  0  0  0
    3.7321   -2.3916    0.0000 C   0  0  0  0  0  0  0  0  0  0  0  0
    4.9131    1.7358    0.0000 C   0  0  0  0  0  0  0  0  0  0  0  0
    4.8198   -0.0437    0.0000 C   0  0  0  0  0  0  0  0  0  0  0  0
    3.7321   -3.3916    0.0000 C   0  0  0  0  0  0  0  0  0  0  0  0
    3.3304    2.0723    0.0000 C   0  0  0  0  0  0  0  0  0  0  0  0
    3.2321   -0.8527    0.0000 C   0  0  0  0  0  0  0  0  0  0  0  0
    2.9230   -1.8038    0.0000 C   0  0  0  0  0  0  0  0  0  0  0  0
    3.7087    4.1263    0.0000 C   0  0  0  0  0  0  0  0  0  0  0  0
    5.4029    3.7662    0.0000 C   0  0  0  0  0  0  0  0  0  0  0  0
    2.8660   -3.8916    0.0000 C   0  0  0  0  0  0  0  0  0  0  0  0
    4.5981   -3.8916    0.0000 C   0  0  0  0  0  0  0  0  0  0  0  0
    3.9166    5.1044    0.0000 C   0  0  0  0  0  0  0  0  0  0  0  0
    5.6108    4.7443    0.0000 C   0  0  0  0  0  0  0  0  0  0  0  0
    2.8660   -4.8916    0.0000 C   0  0  0  0  0  0  0  0  0  0  0  0
    4.5981   -4.8916    0.0000 C   0  0  0  0  0  0  0  0  0  0  0  0
    4.8677    5.4134    0.0000 C   0  0  0  0  0  0  0  0  0  0  0  0
    3.7321   -5.3916    0.0000 C   0  0  0  0  0  0  0  0  0  0  0  0
    5.4364   -0.1085    0.0000 H   0  0  0  0  0  0  0  0  0  0  0  0
    2.8676   -0.3512    0.0000 H   0  0  0  0  0  0  0  0  0  0  0  0
    2.3334   -1.9954    0.0000 H   0  0  0  0  0  0  0  0  0  0  0  0
    3.1191    3.9347    0.0000 H   0  0  0  0  0  0  0  0  0  0  0  0
    5.8637    3.3513    0.0000 H   0  0  0  0  0  0  0  0  0  0  0  0
    2.3291   -3.5816    0.0000 H   0  0  0  0  0  0  0  0  0  0  0  0
    5.1350   -3.5816    0.0000 H   0  0  0  0  0  0  0  0  0  0  0  0
    3.4559    5.5193    0.0000 H   0  0  0  0  0  0  0  0  0  0  0  0
    6.2005    4.9359    0.0000 H   0  0  0  0  0  0  0  0  0  0  0  0
    5.1350   -5.2016    0.0000 H   0  0  0  0  0  0  0  0  0  0  0  0
  1 25  1  0  0  0  0
  2 28  1  0  0  0  0
  3  9  1  0  0  0  0
  3 16  1  0  0  0  0
  4 16  2  0  0  0  0
  5 27  1  0  0  0  0
  6 11  1  0  0  0  0
  6 12  1  0  0  0  0
  7 13  2  0  0  0  0
  8 10  1  0  0  0  0
  8 13  1  0  0  0  0
  8 16  1  0  0  0  0
  9 13  1  0  0  0  0
  9 14  2  0  0  0  0
 10 19  2  0  0  0  0
 10 20  1  0  0  0  0
 11 14  1  0  0  0  0
 11 17  2  0  0  0  0
 12 15  1  0  0  0  0
 12 18  2  0  0  0  0
 14 29  1  0  0  0  0
 15 21  2  0  0  0  0
 15 22  1  0  0  0  0
 17 18  1  0  0  0  0
 17 30  1  0  0  0  0
 18 31  1  0  0  0  0
 19 23  1  0  0  0  0
 19 32  1  0  0  0  0
 20 24  2  0  0  0  0
 20 33  1  0  0  0  0
 21 25  1  0  0  0  0
 21 34  1  0  0  0  0
 22 26  2  0  0  0  0
 22 35  1  0  0  0  0
 23 27  2  0  0  0  0
 23 36  1  0  0  0  0
 24 27  1  0  0  0  0
 24 37  1  0  0  0  0
 25 28  2  0  0  0  0
 26 28  1  0  0  0  0
 26 38  1  0  0  0  0
M  END
> <PUBCHEM_COMPOUND_CID>
1594457

> <PUBCHEM_COMPOUND_CANONICALIZED>
1

> <PUBCHEM_CACTVS_COMPLEXITY>
656

> <PUBCHEM_CACTVS_HBOND_ACCEPTOR>
5

> <PUBCHEM_CACTVS_HBOND_DONOR>
0

> <PUBCHEM_CACTVS_ROTATABLE_BOND>
3

> <PUBCHEM_CACTVS_SUBSKEYS>
AAADccB6MQBmAAAAAAAAAAAAAAAAAWJAAAAwYAAAAAAAAAAB0AAAHwYAAAAADA6B2CgwxIMABEiMAqVSUACCCABlJxgIikEGbsgMJjLFt5uGOSjkxBHI6YeYyPCOBAAAIAAAAAQIAABAAAAACAAAAAAAAA==

> <PUBCHEM_IUPAC_OPENEYE_NAME>
(5Z)-5-[[5-(3,4-dichlorophenyl)-2-furyl]methylene]-3-(4-fluorophenyl)-2-thioxo-thiazolidin-4-one

> <PUBCHEM_IUPAC_CAS_NAME>
(5Z)-5-[[5-(3,4-dichlorophenyl)-2-furanyl]methylidene]-3-(4-fluorophenyl)-2-sulfanylidene-4-thiazolidinone

> <PUBCHEM_IUPAC_NAME>
(5Z)-5-[[5-(3,4-dichlorophenyl)furan-2-yl]methylidene]-3-(4-fluorophenyl)-2-sulfanylidene-1,3-thiazolidin-4-one

> <PUBCHEM_IUPAC_SYSTEMATIC_NAME>
(5Z)-5-[[5-(3,4-dichlorophenyl)furan-2-yl]methylidene]-3-(4-fluorophenyl)-2-sulfanylidene-1,3-thiazolidin-4-one

> <PUBCHEM_IUPAC_TRADITIONAL_NAME>
(5Z)-5-[[5-(3,4-dichlorophenyl)-2-furyl]methylene]-3-(4-fluorophenyl)-2-thioxo-thiazolidin-4-one

> <PUBCHEM_IUPAC_INCHI>
InChI=1S/C20H10Cl2FNO2S2/c21-15-7-1-11(9-16(15)22)17-8-6-14(26-17)10-18-19(25)24(20(27)28-18)13-4-2-12(23)3-5-13/h1-10H/b18-10-

> <PUBCHEM_IUPAC_INCHIKEY>
RWNWHEXRJBCSNX-ZDLGFXPLSA-N

> <PUBCHEM_XLOGP3_AA>
6.7

> <PUBCHEM_EXACT_MASS>
448.951

> <PUBCHEM_MOLECULAR_FORMULA>
C20H10Cl2FNO2S2

> <PUBCHEM_MOLECULAR_WEIGHT>
450.323

> <PUBCHEM_OPENEYE_CAN_SMILES>
C1=CC(=CC=C1N2C(=O)C(=CC3=CC=C(O3)C4=CC(=C(C=C4)Cl)Cl)SC2=S)F

> <PUBCHEM_OPENEYE_ISO_SMILES>
C1=CC(=CC=C1N2C(=O)/C(=C/C3=CC=C(O3)C4=CC(=C(C=C4)Cl)Cl)/SC2=S)F

> <PUBCHEM_CACTVS_TPSA>
90.8

> <PUBCHEM_MONOISOTOPIC_WEIGHT>
448.951

> <PUBCHEM_TOTAL_CHARGE>
0

> <PUBCHEM_HEAVY_ATOM_COUNT>
28

> <PUBCHEM_ATOM_DEF_STEREO_COUNT>
0

> <PUBCHEM_ATOM_UDEF_STEREO_COUNT>
0

> <PUBCHEM_BOND_DEF_STEREO_COUNT>
1

> <PUBCHEM_BOND_UDEF_STEREO_COUNT>
0

> <PUBCHEM_ISOTOPIC_ATOM_COUNT>
0

> <PUBCHEM_COMPONENT_COUNT>
1

> <PUBCHEM_CACTVS_TAUTO_COUNT>
1

> <PUBCHEM_COORDINATE_TYPE>
1
5
255

> <PUBCHEM_BONDANNOTATIONS>
10  19  8
10  20  8
11  17  8
12  18  8
15  21  8
15  22  8
17  18  8
19  23  8
20  24  8
21  25  8
22  26  8
23  27  8
24  27  8
25  28  8
26  28  8
6  11  8
6  12  8

$$$$
1207357
  -OEChem-11021605012D

 20 21  0     0  0  0  0  0  0999 V2000
    4.6456    0.4588    0.0000 S   0  0  0  0  0  0  0  0  0  0  0  0
    6.3092    1.0975    0.0000 S   0  0  0  0  0  0  0  0  0  0  0  0
    3.0934    2.5292    0.0000 O   0  0  0  0  0  0  0  0  0  0  0  0
    4.8147    2.0680    0.0000 N   0  0  0  0  0  0  0  0  0  0  0  0
    3.7320   -2.1344    0.0000 N   0  0  0  0  0  0  0  0  0  0  0  0
    3.7320    0.8656    0.0000 C   0  0  0  0  0  0  0  0  0  0  0  0
    2.8660    0.3656    0.0000 C   0  0  0  0  0  0  0  0  0  0  0  0
    2.8660   -0.6344    0.0000 C   0  0  0  0  0  0  0  0  0  0  0  0
    3.8366    1.8601    0.0000 C   0  0  0  0  0  0  0  0  0  0  0  0
    2.0000   -1.1344    0.0000 C   0  0  0  0  0  0  0  0  0  0  0  0
    5.3147    1.2020    0.0000 C   0  0  0  0  0  0  0  0  0  0  0  0
    3.7320   -1.1344    0.0000 C   0  0  0  0  0  0  0  0  0  0  0  0
    2.0000   -2.1344    0.0000 C   0  0  0  0  0  0  0  0  0  0  0  0
    2.8660   -2.6344    0.0000 C   0  0  0  0  0  0  0  0  0  0  0  0
    2.3291    0.6756    0.0000 H   0  0  0  0  0  0  0  0  0  0  0  0
    5.0669    2.6344    0.0000 H   0  0  0  0  0  0  0  0  0  0  0  0
    1.4631   -0.8244    0.0000 H   0  0  0  0  0  0  0  0  0  0  0  0
    4.2690   -0.8244    0.0000 H   0  0  0  0  0  0  0  0  0  0  0  0
    1.4631   -2.4444    0.0000 H   0  0  0  0  0  0  0  0  0  0  0  0
    2.8660   -3.2544    0.0000 H   0  0  0  0  0  0  0  0  0  0  0  0
  1  6  1  0  0  0  0
  1 11  1  0  0  0  0
  2 11  2  0  0  0  0
  3  9  2  0  0  0  0
  4  9  1  0  0  0  0
  4 11  1  0  0  0  0
  4 16  1  0  0  0  0
  5 12  1  0  0  0  0
  5 14  2  0  0  0  0
  6  7  2  0  0  0  0
  6  9  1  0  0  0  0
  7  8  1  0  0  0  0
  7 15  1  0  0  0  0
  8 10  1  0  0  0  0
  8 12  2  0  0  0  0
 10 13  2  0  0  0  0
 10 17  1  0  0  0  0
 12 18  1  0  0  0  0
 13 14  1  0  0  0  0
 13 19  1  0  0  0  0
 14 20  1  0  0  0  0
M  END
> <PUBCHEM_COMPOUND_CID>
1207357

> <PUBCHEM_COMPOUND_CANONICALIZED>
1

> <PUBCHEM_CACTVS_COMPLEXITY>
301

> <PUBCHEM_CACTVS_HBOND_ACCEPTOR>
4

> <PUBCHEM_CACTVS_HBOND_DONOR>
1

> <PUBCHEM_CACTVS_ROTATABLE_BOND>
1

> <PUBCHEM_CACTVS_SUBSKEYS>
AAADcYBzIABgAAAAAAAAAAAAAAAAAWAAAAAsAAAAAAAAAAABgAAAHgQQAAAADADB2gQ8gJLIEAisAjF3VACCgCBxAjkI2CA4ZNgIIOLAkZGEIAhggADIyYYQAAAMAAAAAAAAAAAAAAAAAAAAAAAAAAAAAA==

> <PUBCHEM_IUPAC_OPENEYE_NAME>
(5Z)-5-(3-pyridylmethylene)-2-thioxo-thiazolidin-4-one

> <PUBCHEM_IUPAC_CAS_NAME>
(5Z)-5-(3-pyridinylmethylidene)-2-sulfanylidene-4-thiazolidinone

> <PUBCHEM_IUPAC_NAME>
(5Z)-5-(pyridin-3-ylmethylidene)-2-sulfanylidene-1,3-thiazolidin-4-one

> <PUBCHEM_IUPAC_SYSTEMATIC_NAME>
(5Z)-5-(pyridin-3-ylmethylidene)-2-sulfanylidene-1,3-thiazolidin-4-one

> <PUBCHEM_IUPAC_TRADITIONAL_NAME>
(5Z)-5-(3-pyridylmethylene)-2-thioxo-thiazolidin-4-one

> <PUBCHEM_IUPAC_INCHI>
InChI=1S/C9H6N2OS2/c12-8-7(14-9(13)11-8)4-6-2-1-3-10-5-6/h1-5H,(H,11,12,13)/b7-4-

> <PUBCHEM_IUPAC_INCHIKEY>
WCMBSDRTRVIVGG-DAXSKMNVSA-N

> <PUBCHEM_XLOGP3_AA>
1.7

> <PUBCHEM_EXACT_MASS>
221.992

> <PUBCHEM_MOLECULAR_FORMULA>
C9H6N2OS2

> <PUBCHEM_MOLECULAR_WEIGHT>
222.28

> <PUBCHEM_OPENEYE_CAN_SMILES>
C1=CC(=CN=C1)C=C2C(=O)NC(=S)S2

> <PUBCHEM_OPENEYE_ISO_SMILES>
C1=CC(=CN=C1)/C=C\2/C(=O)NC(=S)S2

> <PUBCHEM_CACTVS_TPSA>
99.4

> <PUBCHEM_MONOISOTOPIC_WEIGHT>
221.992

> <PUBCHEM_TOTAL_CHARGE>
0

> <PUBCHEM_HEAVY_ATOM_COUNT>
14

> <PUBCHEM_ATOM_DEF_STEREO_COUNT>
0

> <PUBCHEM_ATOM_UDEF_STEREO_COUNT>
0

> <PUBCHEM_BOND_DEF_STEREO_COUNT>
1

> <PUBCHEM_BOND_UDEF_STEREO_COUNT>
0

> <PUBCHEM_ISOTOPIC_ATOM_COUNT>
0

> <PUBCHEM_COMPONENT_COUNT>
1

> <PUBCHEM_CACTVS_TAUTO_COUNT>
3

> <PUBCHEM_COORDINATE_TYPE>
1
5
255

> <PUBCHEM_BONDANNOTATIONS>
10  13  8
13  14  8
5  12  8
5  14  8
8  10  8
8  12  8

$$$$
1420181
  -OEChem-11021605012D

 26 27  0     0  0  0  0  0  0999 V2000
    4.6456   -0.2562    0.0000 S   0  0  0  0  0  0  0  0  0  0  0  0
    6.3092    0.3824    0.0000 S   0  0  0  0  0  0  0  0  0  0  0  0
    3.0934    1.8142    0.0000 O   0  0  0  0  0  0  0  0  0  0  0  0
    6.6227    3.2846    0.0000 O   0  0  0  0  0  0  0  0  0  0  0  0
    6.8038    1.5621    0.0000 O   0  0  0  0  0  0  0  0  0  0  0  0
    4.8147    1.3530    0.0000 N   0  0  0  0  0  0  0  0  0  0  0  0
    2.8660   -3.3494    0.0000 N   0  0  0  0  0  0  0  0  0  0  0  0
    3.7320    0.1506    0.0000 C   0  0  0  0  0  0  0  0  0  0  0  0
    3.8366    1.1451    0.0000 C   0  0  0  0  0  0  0  0  0  0  0  0
    5.2215    2.2666    0.0000 C   0  0  0  0  0  0  0  0  0  0  0  0
    5.3147    0.4870    0.0000 C   0  0  0  0  0  0  0  0  0  0  0  0
    2.8660   -0.3494    0.0000 C   0  0  0  0  0  0  0  0  0  0  0  0
    2.8660   -1.3494    0.0000 C   0  0  0  0  0  0  0  0  0  0  0  0
    6.2160    2.3711    0.0000 C   0  0  0  0  0  0  0  0  0  0  0  0
    3.7320   -1.8494    0.0000 C   0  0  0  0  0  0  0  0  0  0  0  0
    2.0000   -1.8494    0.0000 C   0  0  0  0  0  0  0  0  0  0  0  0
    3.7320   -2.8494    0.0000 C   0  0  0  0  0  0  0  0  0  0  0  0
    2.0000   -2.8494    0.0000 C   0  0  0  0  0  0  0  0  0  0  0  0
    5.2647    2.8850    0.0000 H   0  0  0  0  0  0  0  0  0  0  0  0
    4.6199    2.4165    0.0000 H   0  0  0  0  0  0  0  0  0  0  0  0
    2.3291   -0.0394    0.0000 H   0  0  0  0  0  0  0  0  0  0  0  0
    4.2690   -1.5394    0.0000 H   0  0  0  0  0  0  0  0  0  0  0  0
    1.4631   -1.5394    0.0000 H   0  0  0  0  0  0  0  0  0  0  0  0
    4.2690   -3.1594    0.0000 H   0  0  0  0  0  0  0  0  0  0  0  0
    1.4631   -3.1594    0.0000 H   0  0  0  0  0  0  0  0  0  0  0  0
    7.2393    3.3494    0.0000 H   0  0  0  0  0  0  0  0  0  0  0  0
  1  8  1  0  0  0  0
  1 11  1  0  0  0  0
  2 11  2  0  0  0  0
  3  9  2  0  0  0  0
  4 14  1  0  0  0  0
  4 26  1  0  0  0  0
  5 14  2  0  0  0  0
  6  9  1  0  0  0  0
  6 10  1  0  0  0  0
  6 11  1  0  0  0  0
  7 17  2  0  0  0  0
  7 18  1  0  0  0  0
  8  9  1  0  0  0  0
  8 12  2  0  0  0  0
 10 14  1  0  0  0  0
 10 19  1  0  0  0  0
 10 20  1  0  0  0  0
 12 13  1  0  0  0  0
 12 21  1  0  0  0  0
 13 15  2  0  0  0  0
 13 16  1  0  0  0  0
 15 17  1  0  0  0  0
 15 22  1  0  0  0  0
 16 18  2  0  0  0  0
 16 23  1  0  0  0  0
 17 24  1  0  0  0  0
 18 25  1  0  0  0  0
M  END
> <PUBCHEM_COMPOUND_CID>
1420181

> <PUBCHEM_COMPOUND_CANONICALIZED>
1

> <PUBCHEM_CACTVS_COMPLEXITY>
417

> <PUBCHEM_CACTVS_HBOND_ACCEPTOR>
6

> <PUBCHEM_CACTVS_HBOND_DONOR>
1

> <PUBCHEM_CACTVS_ROTATABLE_BOND>
3

> <PUBCHEM_CACTVS_SUBSKEYS>
AAADccBzMABgAAAAAAAAAAAAAAAAAWAAAAAsAAAAAAAAAAABgAAAHgQACAAADADB2gQ8iJMIEgisAjH3XACCgCBxAjgI2CC4ZNgKIGLAkbGEIAhghgDYyYYQAAAKAAAAAAAAAAAAAAAAAAAAAAAAAAAAAA==

> <PUBCHEM_IUPAC_OPENEYE_NAME>
2-[(5Z)-4-oxo-5-(4-pyridylmethylene)-2-thioxo-thiazolidin-3-yl]acetic acid

> <PUBCHEM_IUPAC_CAS_NAME>
2-[(5Z)-4-oxo-5-(pyridin-4-ylmethylidene)-2-sulfanylidene-3-thiazolidinyl]acetic acid

> <PUBCHEM_IUPAC_NAME>
2-[(5Z)-4-oxo-5-(pyridin-4-ylmethylidene)-2-sulfanylidene-1,3-thiazolidin-3-yl]acetic acid

> <PUBCHEM_IUPAC_SYSTEMATIC_NAME>
2-[(5Z)-4-oxidanylidene-5-(pyridin-4-ylmethylidene)-2-sulfanylidene-1,3-thiazolidin-3-yl]ethanoic acid

> <PUBCHEM_IUPAC_TRADITIONAL_NAME>
2-[(5Z)-4-keto-5-(4-pyridylmethylene)-2-thioxo-thiazolidin-3-yl]acetic acid

> <PUBCHEM_IUPAC_INCHI>
InChI=1S/C11H8N2O3S2/c14-9(15)6-13-10(16)8(18-11(13)17)5-7-1-3-12-4-2-7/h1-5H,6H2,(H,14,15)/b8-5-

> <PUBCHEM_IUPAC_INCHIKEY>
RGJUEHCLCQAVGK-YVMONPNESA-N

> <PUBCHEM_XLOGP3_AA>
1.5

> <PUBCHEM_EXACT_MASS>
279.998

> <PUBCHEM_MOLECULAR_FORMULA>
C11H8N2O3S2

> <PUBCHEM_MOLECULAR_WEIGHT>
280.316

> <PUBCHEM_OPENEYE_CAN_SMILES>
C1=CN=CC=C1C=C2C(=O)N(C(=S)S2)CC(=O)O

> <PUBCHEM_OPENEYE_ISO_SMILES>
C1=CN=CC=C1/C=C\2/C(=O)N(C(=S)S2)CC(=O)O

> <PUBCHEM_CACTVS_TPSA>
128

> <PUBCHEM_MONOISOTOPIC_WEIGHT>
279.998

> <PUBCHEM_TOTAL_CHARGE>
0

> <PUBCHEM_HEAVY_ATOM_COUNT>
18

> <PUBCHEM_ATOM_DEF_STEREO_COUNT>
0

> <PUBCHEM_ATOM_UDEF_STEREO_COUNT>
0

> <PUBCHEM_BOND_DEF_STEREO_COUNT>
1

> <PUBCHEM_BOND_UDEF_STEREO_COUNT>
0

> <PUBCHEM_ISOTOPIC_ATOM_COUNT>
0

> <PUBCHEM_COMPONENT_COUNT>
1

> <PUBCHEM_CACTVS_TAUTO_COUNT>
1

> <PUBCHEM_COORDINATE_TYPE>
1
5
255

> <PUBCHEM_BONDANNOTATIONS>
13  15  8
13  16  8
15  17  8
16  18  8
7  17  8
7  18  8

$$$$
71654388
  -OEChem-11021605012D

 44 45  0     1  0  0  0  0  0999 V2000
    2.5369    1.1552    0.0000 O   0  0  0  0  0  0  0  0  0  0  0  0
    8.6793    1.4600    0.0000 N   0  0  0  0  0  0  0  0  0  0  0  0
    5.1350    1.6552    0.0000 N   0  0  0  0  0  0  0  0  0  0  0  0
    6.8671    1.6552    0.0000 N   0  0  0  0  0  0  0  0  0  0  0  0
    8.6793   -0.1495    0.0000 N   0  0  0  0  0  0  0  0  0  0  0  0
    6.0010    0.1552    0.0000 N   0  0  0  0  0  0  0  0  0  0  0  0
    6.8671   -1.3448    0.0000 N   0  0  0  0  0  0  0  0  0  0  0  0
    6.0010   -2.8448    0.0000 N   0  0  0  0  0  0  0  0  0  0  0  0
    5.1350   -1.3448    0.0000 N   0  0  0  0  0  0  0  0  0  0  0  0
    8.9900    2.4105    0.0000 C   0  0  0  0  0  0  0  0  0  0  0  0
    4.2690    1.1552    0.0000 C   0  0  1  0  0  0  0  0  0  0  0  0
    7.7331    1.1552    0.0000 C   0  0  0  0  0  0  0  0  0  0  0  0
    4.2690    0.1552    0.0000 C   0  0  0  0  0  0  0  0  0  0  0  0
    7.7331    0.1552    0.0000 C   0  0  0  0  0  0  0  0  0  0  0  0
    3.4030    1.6552    0.0000 C   0  0  0  0  0  0  0  0  0  0  0  0
    6.0010    1.1552    0.0000 C   0  0  0  0  0  0  0  0  0  0  0  0
    9.9685    2.6167    0.0000 C   0  0  0  0  0  0  0  0  0  0  0  0
    8.3221    3.1548    0.0000 C   0  0  0  0  0  0  0  0  0  0  0  0
    9.2629    0.6552    0.0000 C   0  0  0  0  0  0  0  0  0  0  0  0
    6.8671   -0.3448    0.0000 C   0  0  0  0  0  0  0  0  0  0  0  0
    3.4030   -0.3448    0.0000 C   0  0  0  0  0  0  0  0  0  0  0  0
    6.0010   -1.8448    0.0000 C   0  0  0  0  0  0  0  0  0  0  0  0
    4.2690    1.7752    0.0000 H   0  0  0  0  0  0  0  0  0  0  0  0
    9.1826    2.9998    0.0000 H   0  0  0  0  0  0  0  0  0  0  0  0
    4.4810   -0.4274    0.0000 H   0  0  0  0  0  0  0  0  0  0  0  0
    4.8796    0.2629    0.0000 H   0  0  0  0  0  0  0  0  0  0  0  0
    5.1350    2.2752    0.0000 H   0  0  0  0  0  0  0  0  0  0  0  0
    3.8015    2.1302    0.0000 H   0  0  0  0  0  0  0  0  0  0  0  0
    3.0044    2.1302    0.0000 H   0  0  0  0  0  0  0  0  0  0  0  0
    8.7836    3.5688    0.0000 H   0  0  0  0  0  0  0  0  0  0  0  0
    7.9081    3.6162    0.0000 H   0  0  0  0  0  0  0  0  0  0  0  0
    7.8607    2.7407    0.0000 H   0  0  0  0  0  0  0  0  0  0  0  0
   10.0963    2.0100    0.0000 H   0  0  0  0  0  0  0  0  0  0  0  0
   10.5751    2.7446    0.0000 H   0  0  0  0  0  0  0  0  0  0  0  0
    9.8406    3.2234    0.0000 H   0  0  0  0  0  0  0  0  0  0  0  0
    9.8829    0.6552    0.0000 H   0  0  0  0  0  0  0  0  0  0  0  0
    3.0930    0.1922    0.0000 H   0  0  0  0  0  0  0  0  0  0  0  0
    2.8660   -0.6548    0.0000 H   0  0  0  0  0  0  0  0  0  0  0  0
    3.7130   -0.8817    0.0000 H   0  0  0  0  0  0  0  0  0  0  0  0
    2.0000    1.4652    0.0000 H   0  0  0  0  0  0  0  0  0  0  0  0
    4.5981   -1.6548    0.0000 H   0  0  0  0  0  0  0  0  0  0  0  0
    5.4641   -3.1548    0.0000 H   0  0  0  0  0  0  0  0  0  0  0  0
    6.5380   -3.1548    0.0000 H   0  0  0  0  0  0  0  0  0  0  0  0
    5.1350   -0.7248    0.0000 H   0  0  0  0  0  0  0  0  0  0  0  0
  1 15  1  0  0  0  0
  1 40  1  0  0  0  0
  2 10  1  0  0  0  0
  2 12  1  0  0  0  0
  2 19  1  0  0  0  0
 11  3  1  1  0  0  0
  3 16  1  0  0  0  0
  3 27  1  0  0  0  0
  4 12  2  0  0  0  0
  4 16  1  0  0  0  0
  5 14  1  0  0  0  0
  5 19  2  0  0  0  0
  6 16  2  0  0  0  0
  6 20  1  0  0  0  0
  7 20  1  0  0  0  0
  7 22  2  0  0  0  0
  8 22  1  0  0  0  0
  8 42  1  0  0  0  0
  8 43  1  0  0  0  0
  9 22  1  0  0  0  0
  9 41  1  0  0  0  0
  9 44  1  0  0  0  0
 10 17  1  0  0  0  0
 10 18  1  0  0  0  0
 10 24  1  0  0  0  0
 11 13  1  0  0  0  0
 11 15  1  0  0  0  0
 11 23  1  0  0  0  0
 12 14  1  0  0  0  0
 13 21  1  0  0  0  0
 13 25  1  0  0  0  0
 13 26  1  0  0  0  0
 14 20  2  0  0  0  0
 15 28  1  0  0  0  0
 15 29  1  0  0  0  0
 17 33  1  0  0  0  0
 17 34  1  0  0  0  0
 17 35  1  0  0  0  0
 18 30  1  0  0  0  0
 18 31  1  0  0  0  0
 18 32  1  0  0  0  0
 19 36  1  0  0  0  0
 21 37  1  0  0  0  0
 21 38  1  0  0  0  0
 21 39  1  0  0  0  0
M  END
> <PUBCHEM_COMPOUND_CID>
71654388

> <PUBCHEM_COMPOUND_CANONICALIZED>
1

> <PUBCHEM_CACTVS_COMPLEXITY>
386

> <PUBCHEM_CACTVS_HBOND_ACCEPTOR>
6

> <PUBCHEM_CACTVS_HBOND_DONOR>
4

> <PUBCHEM_CACTVS_ROTATABLE_BOND>
6

> <PUBCHEM_CACTVS_SUBSKEYS>
AAADceBz4AAAAAAAAAAAAAAAAAAAAWAAAAAsAAAAAAAAAFgB+AAAHgAQCAAACCjhlwYH8L/MEgCgAQZhZACAgC0REKABUKAoVBCCWABASEAURAgMEALQACAAAAAAAAAAAAAAAAAAAAAAAAAAAAAAAAAAAA==

> <PUBCHEM_IUPAC_OPENEYE_NAME>
2-[2-[[(1S)-1-(hydroxymethyl)propyl]amino]-9-isopropyl-purin-6-yl]guanidine

> <PUBCHEM_IUPAC_CAS_NAME>
2-[2-[[(2S)-1-hydroxybutan-2-yl]amino]-9-propan-2-yl-6-purinyl]guanidine

> <PUBCHEM_IUPAC_NAME>
2-[2-[[(2S)-1-hydroxybutan-2-yl]amino]-9-propan-2-ylpurin-6-yl]guanidine

> <PUBCHEM_IUPAC_SYSTEMATIC_NAME>
2-[2-[[(2S)-1-oxidanylbutan-2-yl]amino]-9-propan-2-yl-purin-6-yl]guanidine

> <PUBCHEM_IUPAC_TRADITIONAL_NAME>
2-[9-isopropyl-2-[[(1S)-1-methylolpropyl]amino]purin-6-yl]guanidine

> <PUBCHEM_IUPAC_INCHI>
InChI=1S/C13H22N8O/c1-4-8(5-22)17-13-19-10(18-12(14)15)9-11(20-13)21(6-16-9)7(2)3/h6-8,22H,4-5H2,1-3H3,(H5,14,15,17,18,19,20)/t8-/m0/s1

> <PUBCHEM_IUPAC_INCHIKEY>
LSLSNRQKKSMLCT-QMMMGPOBSA-N

> <PUBCHEM_XLOGP3_AA>
0.2

> <PUBCHEM_EXACT_MASS>
306.192

> <PUBCHEM_MOLECULAR_FORMULA>
C13H22N8O

> <PUBCHEM_MOLECULAR_WEIGHT>
306.374

> <PUBCHEM_OPENEYE_CAN_SMILES>
CCC(CO)NC1=NC(=C2C(=N1)N(C=N2)C(C)C)N=C(N)N

> <PUBCHEM_OPENEYE_ISO_SMILES>
CC[C@@H](CO)NC1=NC(=C2C(=N1)N(C=N2)C(C)C)N=C(N)N

> <PUBCHEM_CACTVS_TPSA>
140

> <PUBCHEM_MONOISOTOPIC_WEIGHT>
306.192

> <PUBCHEM_TOTAL_CHARGE>
0

> <PUBCHEM_HEAVY_ATOM_COUNT>
22

> <PUBCHEM_ATOM_DEF_STEREO_COUNT>
1

> <PUBCHEM_ATOM_UDEF_STEREO_COUNT>
0

> <PUBCHEM_BOND_DEF_STEREO_COUNT>
0

> <PUBCHEM_BOND_UDEF_STEREO_COUNT>
0

> <PUBCHEM_ISOTOPIC_ATOM_COUNT>
0

> <PUBCHEM_COMPONENT_COUNT>
1

> <PUBCHEM_CACTVS_TAUTO_COUNT>
9

> <PUBCHEM_COORDINATE_TYPE>
1
5
255

> <PUBCHEM_BONDANNOTATIONS>
12  14  8
14  20  8
2  12  8
2  19  8
11  3  5
4  12  8
4  16  8
5  14  8
5  19  8
6  16  8
6  20  8

$$$$
71654386
  -OEChem-11021605012D

 44 45  0     1  0  0  0  0  0999 V2000
    2.5369    1.1552    0.0000 O   0  0  0  0  0  0  0  0  0  0  0  0
    8.6793    1.4600    0.0000 N   0  0  0  0  0  0  0  0  0  0  0  0
    5.1350    1.6552    0.0000 N   0  0  0  0  0  0  0  0  0  0  0  0
    6.8671    1.6552    0.0000 N   0  0  0  0  0  0  0  0  0  0  0  0
    8.6793   -0.1495    0.0000 N   0  0  0  0  0  0  0  0  0  0  0  0
    6.0010    0.1552    0.0000 N   0  0  0  0  0  0  0  0  0  0  0  0
    6.8671   -1.3448    0.0000 N   0  0  0  0  0  0  0  0  0  0  0  0
    6.0010   -2.8448    0.0000 N   0  0  0  0  0  0  0  0  0  0  0  0
    5.1350   -1.3448    0.0000 N   0  0  0  0  0  0  0  0  0  0  0  0
    8.9900    2.4105    0.0000 C   0  0  0  0  0  0  0  0  0  0  0  0
    4.2690    1.1552    0.0000 C   0  0  2  0  0  0  0  0  0  0  0  0
    7.7331    1.1552    0.0000 C   0  0  0  0  0  0  0  0  0  0  0  0
    4.2690    0.1552    0.0000 C   0  0  0  0  0  0  0  0  0  0  0  0
    7.7331    0.1552    0.0000 C   0  0  0  0  0  0  0  0  0  0  0  0
    3.4030    1.6552    0.0000 C   0  0  0  0  0  0  0  0  0  0  0  0
    6.0010    1.1552    0.0000 C   0  0  0  0  0  0  0  0  0  0  0  0
    9.9685    2.6167    0.0000 C   0  0  0  0  0  0  0  0  0  0  0  0
    8.3221    3.1548    0.0000 C   0  0  0  0  0  0  0  0  0  0  0  0
    9.2629    0.6552    0.0000 C   0  0  0  0  0  0  0  0  0  0  0  0
    6.8671   -0.3448    0.0000 C   0  0  0  0  0  0  0  0  0  0  0  0
    3.4030   -0.3448    0.0000 C   0  0  0  0  0  0  0  0  0  0  0  0
    6.0010   -1.8448    0.0000 C   0  0  0  0  0  0  0  0  0  0  0  0
    4.2690    1.7752    0.0000 H   0  0  0  0  0  0  0  0  0  0  0  0
    9.1826    2.9998    0.0000 H   0  0  0  0  0  0  0  0  0  0  0  0
    4.4810   -0.4274    0.0000 H   0  0  0  0  0  0  0  0  0  0  0  0
    4.8796    0.2629    0.0000 H   0  0  0  0  0  0  0  0  0  0  0  0
    5.1350    2.2752    0.0000 H   0  0  0  0  0  0  0  0  0  0  0  0
    3.8015    2.1302    0.0000 H   0  0  0  0  0  0  0  0  0  0  0  0
    3.0044    2.1302    0.0000 H   0  0  0  0  0  0  0  0  0  0  0  0
    8.7836    3.5688    0.0000 H   0  0  0  0  0  0  0  0  0  0  0  0
    7.9081    3.6162    0.0000 H   0  0  0  0  0  0  0  0  0  0  0  0
    7.8607    2.7407    0.0000 H   0  0  0  0  0  0  0  0  0  0  0  0
   10.0963    2.0100    0.0000 H   0  0  0  0  0  0  0  0  0  0  0  0
   10.5751    2.7446    0.0000 H   0  0  0  0  0  0  0  0  0  0  0  0
    9.8406    3.2234    0.0000 H   0  0  0  0  0  0  0  0  0  0  0  0
    9.8829    0.6552    0.0000 H   0  0  0  0  0  0  0  0  0  0  0  0
    3.0930    0.1922    0.0000 H   0  0  0  0  0  0  0  0  0  0  0  0
    2.8660   -0.6548    0.0000 H   0  0  0  0  0  0  0  0  0  0  0  0
    3.7130   -0.8817    0.0000 H   0  0  0  0  0  0  0  0  0  0  0  0
    2.0000    1.4652    0.0000 H   0  0  0  0  0  0  0  0  0  0  0  0
    4.5981   -1.6548    0.0000 H   0  0  0  0  0  0  0  0  0  0  0  0
    5.4641   -3.1548    0.0000 H   0  0  0  0  0  0  0  0  0  0  0  0
    6.5380   -3.1548    0.0000 H   0  0  0  0  0  0  0  0  0  0  0  0
    5.1350   -0.7248    0.0000 H   0  0  0  0  0  0  0  0  0  0  0  0
  1 15  1  0  0  0  0
  1 40  1  0  0  0  0
  2 10  1  0  0  0  0
  2 12  1  0  0  0  0
  2 19  1  0  0  0  0
 11  3  1  6  0  0  0
  3 16  1  0  0  0  0
  3 27  1  0  0  0  0
  4 12  2  0  0  0  0
  4 16  1  0  0  0  0
  5 14  1  0  0  0  0
  5 19  2  0  0  0  0
  6 16  2  0  0  0  0
  6 20  1  0  0  0  0
  7 20  1  0  0  0  0
  7 22  2  0  0  0  0
  8 22  1  0  0  0  0
  8 42  1  0  0  0  0
  8 43  1  0  0  0  0
  9 22  1  0  0  0  0
  9 41  1  0  0  0  0
  9 44  1  0  0  0  0
 10 17  1  0  0  0  0
 10 18  1  0  0  0  0
 10 24  1  0  0  0  0
 11 13  1  0  0  0  0
 11 15  1  0  0  0  0
 11 23  1  0  0  0  0
 12 14  1  0  0  0  0
 13 21  1  0  0  0  0
 13 25  1  0  0  0  0
 13 26  1  0  0  0  0
 14 20  2  0  0  0  0
 15 28  1  0  0  0  0
 15 29  1  0  0  0  0
 17 33  1  0  0  0  0
 17 34  1  0  0  0  0
 17 35  1  0  0  0  0
 18 30  1  0  0  0  0
 18 31  1  0  0  0  0
 18 32  1  0  0  0  0
 19 36  1  0  0  0  0
 21 37  1  0  0  0  0
 21 38  1  0  0  0  0
 21 39  1  0  0  0  0
M  END
> <PUBCHEM_COMPOUND_CID>
71654386

> <PUBCHEM_COMPOUND_CANONICALIZED>
1

> <PUBCHEM_CACTVS_COMPLEXITY>
386

> <PUBCHEM_CACTVS_HBOND_ACCEPTOR>
6

> <PUBCHEM_CACTVS_HBOND_DONOR>
4

> <PUBCHEM_CACTVS_ROTATABLE_BOND>
6

> <PUBCHEM_CACTVS_SUBSKEYS>
AAADceBz4AAAAAAAAAAAAAAAAAAAAWAAAAAsAAAAAAAAAFgB+AAAHgAQCAAACCjhlwYH8L/MEgCgAQZhZACAgC0REKABUKAoVBCCWABASEAURAgMEALQACAAAAAAAAAAAAAAAAAAAAAAAAAAAAAAAAAAAA==

> <PUBCHEM_IUPAC_OPENEYE_NAME>
2-[2-[[(1R)-1-(hydroxymethyl)propyl]amino]-9-isopropyl-purin-6-yl]guanidine

> <PUBCHEM_IUPAC_CAS_NAME>
2-[2-[[(2R)-1-hydroxybutan-2-yl]amino]-9-propan-2-yl-6-purinyl]guanidine

> <PUBCHEM_IUPAC_NAME>
2-[2-[[(2R)-1-hydroxybutan-2-yl]amino]-9-propan-2-ylpurin-6-yl]guanidine

> <PUBCHEM_IUPAC_SYSTEMATIC_NAME>
2-[2-[[(2R)-1-oxidanylbutan-2-yl]amino]-9-propan-2-yl-purin-6-yl]guanidine

> <PUBCHEM_IUPAC_TRADITIONAL_NAME>
2-[9-isopropyl-2-[[(1R)-1-methylolpropyl]amino]purin-6-yl]guanidine

> <PUBCHEM_IUPAC_INCHI>
InChI=1S/C13H22N8O/c1-4-8(5-22)17-13-19-10(18-12(14)15)9-11(20-13)21(6-16-9)7(2)3/h6-8,22H,4-5H2,1-3H3,(H5,14,15,17,18,19,20)/t8-/m1/s1

> <PUBCHEM_IUPAC_INCHIKEY>
LSLSNRQKKSMLCT-MRVPVSSYSA-N

> <PUBCHEM_XLOGP3_AA>
0.2

> <PUBCHEM_EXACT_MASS>
306.192

> <PUBCHEM_MOLECULAR_FORMULA>
C13H22N8O

> <PUBCHEM_MOLECULAR_WEIGHT>
306.374

> <PUBCHEM_OPENEYE_CAN_SMILES>
CCC(CO)NC1=NC(=C2C(=N1)N(C=N2)C(C)C)N=C(N)N

> <PUBCHEM_OPENEYE_ISO_SMILES>
CC[C@H](CO)NC1=NC(=C2C(=N1)N(C=N2)C(C)C)N=C(N)N

> <PUBCHEM_CACTVS_TPSA>
140

> <PUBCHEM_MONOISOTOPIC_WEIGHT>
306.192

> <PUBCHEM_TOTAL_CHARGE>
0

> <PUBCHEM_HEAVY_ATOM_COUNT>
22

> <PUBCHEM_ATOM_DEF_STEREO_COUNT>
1

> <PUBCHEM_ATOM_UDEF_STEREO_COUNT>
0

> <PUBCHEM_BOND_DEF_STEREO_COUNT>
0

> <PUBCHEM_BOND_UDEF_STEREO_COUNT>
0

> <PUBCHEM_ISOTOPIC_ATOM_COUNT>
0

> <PUBCHEM_COMPONENT_COUNT>
1

> <PUBCHEM_CACTVS_TAUTO_COUNT>
9

> <PUBCHEM_COORDINATE_TYPE>
1
5
255

> <PUBCHEM_BONDANNOTATIONS>
12  14  8
14  20  8
2  12  8
2  19  8
11  3  6
4  12  8
4  16  8
5  14  8
5  19  8
6  16  8
6  20  8

$$$$
3619463
  -OEChem-11021605012D

 53 57  0     1  0  0  0  0  0999 V2000
    7.2764    2.2313    0.0000 S   0  0  0  0  0  0  0  0  0  0  0  0
   12.3293    1.7237    0.0000 S   0  0  0  0  0  0  0  0  0  0  0  0
   11.2078    2.5144    0.0000 O   0  0  0  0  0  0  0  0  0  0  0  0
    9.1387    3.1867    0.0000 O   0  0  0  0  0  0  0  0  0  0  0  0
   11.1033   -0.6557    0.0000 O   0  0  0  0  0  0  0  0  0  0  0  0
    3.7320    2.4266    0.0000 O   0  0  0  0  0  0  0  0  0  0  0  0
    8.8600    1.4266    0.0000 N   0  0  0  0  0  0  0  0  0  0  0  0
    7.2764    0.6219    0.0000 N   0  0  0  0  0  0  0  0  0  0  0  0
    9.4477    0.6176    0.0000 C   0  0  3  0  0  0  0  0  0  0  0  0
   10.3988    0.9266    0.0000 C   0  0  0  0  0  0  0  0  0  0  0  0
    9.1387   -0.3335    0.0000 C   0  0  0  0  0  0  0  0  0  0  0  0
   10.3988    1.9266    0.0000 C   0  0  0  0  0  0  0  0  0  0  0  0
    9.4477    2.2356    0.0000 C   0  0  0  0  0  0  0  0  0  0  0  0
    7.8600    1.4266    0.0000 C   0  0  0  0  0  0  0  0  0  0  0  0
   11.2078    0.3388    0.0000 C   0  0  0  0  0  0  0  0  0  0  0  0
    8.1606   -0.5414    0.0000 C   0  0  0  0  0  0  0  0  0  0  0  0
    9.8078   -1.0766    0.0000 C   0  0  0  0  0  0  0  0  0  0  0  0
    6.3301    1.9266    0.0000 C   0  0  0  0  0  0  0  0  0  0  0  0
    7.8516   -1.4925    0.0000 C   0  0  0  0  0  0  0  0  0  0  0  0
    9.4988   -2.0277    0.0000 C   0  0  0  0  0  0  0  0  0  0  0  0
    6.3301    0.9266    0.0000 C   0  0  0  0  0  0  0  0  0  0  0  0
    8.5207   -2.2356    0.0000 C   0  0  0  0  0  0  0  0  0  0  0  0
   12.1214    0.7455    0.0000 C   0  0  0  0  0  0  0  0  0  0  0  0
    5.4641    2.4266    0.0000 C   0  0  0  0  0  0  0  0  0  0  0  0
    5.4641    0.4266    0.0000 C   0  0  0  0  0  0  0  0  0  0  0  0
    8.2117   -3.1867    0.0000 C   0  0  0  0  0  0  0  0  0  0  0  0
    4.5981    1.9266    0.0000 C   0  0  0  0  0  0  0  0  0  0  0  0
   12.9874    0.2455    0.0000 C   0  0  0  0  0  0  0  0  0  0  0  0
    4.5981    0.9266    0.0000 C   0  0  0  0  0  0  0  0  0  0  0  0
   13.7305    0.9147    0.0000 C   0  0  0  0  0  0  0  0  0  0  0  0
   13.3238    1.8282    0.0000 C   0  0  0  0  0  0  0  0  0  0  0  0
    2.8660    1.9266    0.0000 C   0  0  0  0  0  0  0  0  0  0  0  0
    2.0000    2.4266    0.0000 C   0  0  0  0  0  0  0  0  0  0  0  0
    9.8862    0.1792    0.0000 H   0  0  0  0  0  0  0  0  0  0  0  0
    7.7457   -0.0807    0.0000 H   0  0  0  0  0  0  0  0  0  0  0  0
   10.4143   -0.9477    0.0000 H   0  0  0  0  0  0  0  0  0  0  0  0
    7.2451   -1.6214    0.0000 H   0  0  0  0  0  0  0  0  0  0  0  0
    9.9137   -2.4884    0.0000 H   0  0  0  0  0  0  0  0  0  0  0  0
   11.1430    3.1310    0.0000 H   0  0  0  0  0  0  0  0  0  0  0  0
    5.4641    3.0466    0.0000 H   0  0  0  0  0  0  0  0  0  0  0  0
    5.4641   -0.1934    0.0000 H   0  0  0  0  0  0  0  0  0  0  0  0
    7.6220   -2.9951    0.0000 H   0  0  0  0  0  0  0  0  0  0  0  0
    8.0201   -3.7763    0.0000 H   0  0  0  0  0  0  0  0  0  0  0  0
    8.8013   -3.3782    0.0000 H   0  0  0  0  0  0  0  0  0  0  0  0
   13.0522   -0.3711    0.0000 H   0  0  0  0  0  0  0  0  0  0  0  0
    4.0611    0.6166    0.0000 H   0  0  0  0  0  0  0  0  0  0  0  0
   14.3370    0.7858    0.0000 H   0  0  0  0  0  0  0  0  0  0  0  0
   13.6338    2.3652    0.0000 H   0  0  0  0  0  0  0  0  0  0  0  0
    2.4675    1.4516    0.0000 H   0  0  0  0  0  0  0  0  0  0  0  0
    3.2646    1.4516    0.0000 H   0  0  0  0  0  0  0  0  0  0  0  0
    2.3100    2.9635    0.0000 H   0  0  0  0  0  0  0  0  0  0  0  0
    1.4631    2.7366    0.0000 H   0  0  0  0  0  0  0  0  0  0  0  0
    1.6900    1.8896    0.0000 H   0  0  0  0  0  0  0  0  0  0  0  0
  1 14  1  0  0  0  0
  1 18  1  0  0  0  0
  2 23  1  0  0  0  0
  2 31  1  0  0  0  0
  3 12  1  0  0  0  0
  3 39  1  0  0  0  0
  4 13  2  0  0  0  0
  5 15  2  0  0  0  0
  6 27  1  0  0  0  0
  6 32  1  0  0  0  0
  7  9  1  0  0  0  0
  7 13  1  0  0  0  0
  7 14  1  0  0  0  0
  8 14  2  0  0  0  0
  8 21  1  0  0  0  0
  9 10  1  0  0  0  0
  9 11  1  0  0  0  0
  9 34  1  0  0  0  0
 10 12  2  0  0  0  0
 10 15  1  0  0  0  0
 11 16  2  0  0  0  0
 11 17  1  0  0  0  0
 12 13  1  0  0  0  0
 15 23  1  0  0  0  0
 16 19  1  0  0  0  0
 16 35  1  0  0  0  0
 17 20  2  0  0  0  0
 17 36  1  0  0  0  0
 18 21  2  0  0  0  0
 18 24  1  0  0  0  0
 19 22  2  0  0  0  0
 19 37  1  0  0  0  0
 20 22  1  0  0  0  0
 20 38  1  0  0  0  0
 21 25  1  0  0  0  0
 22 26  1  0  0  0  0
 23 28  2  0  0  0  0
 24 27  2  0  0  0  0
 24 40  1  0  0  0  0
 25 29  2  0  0  0  0
 25 41  1  0  0  0  0
 26 42  1  0  0  0  0
 26 43  1  0  0  0  0
 26 44  1  0  0  0  0
 27 29  1  0  0  0  0
 28 30  1  0  0  0  0
 28 45  1  0  0  0  0
 29 46  1  0  0  0  0
 30 31  2  0  0  0  0
 30 47  1  0  0  0  0
 31 48  1  0  0  0  0
 32 33  1  0  0  0  0
 32 49  1  0  0  0  0
 32 50  1  0  0  0  0
 33 51  1  0  0  0  0
 33 52  1  0  0  0  0
 33 53  1  0  0  0  0
M  END
> <PUBCHEM_COMPOUND_CID>
3619463

> <PUBCHEM_COMPOUND_CANONICALIZED>
1

> <PUBCHEM_CACTVS_COMPLEXITY>
797

> <PUBCHEM_CACTVS_HBOND_ACCEPTOR>
7

> <PUBCHEM_CACTVS_HBOND_DONOR>
1

> <PUBCHEM_CACTVS_ROTATABLE_BOND>
6

> <PUBCHEM_CACTVS_SUBSKEYS>
AAADceB7OABgAAAAAAAAAAAAAAAAAWJEAAAwYAAAAAAAAFgB/AAAHgQACAAADCzl3gaz17MIFgisA6VydAKD+KllKjhJmD1+bNiOJrrkvZuGOSjsxxP46ae4yMCOQEAABAAAAQCAgAAIAAACAAAAAAAAAA==

> <PUBCHEM_IUPAC_OPENEYE_NAME>
1-(6-ethoxy-1,3-benzothiazol-2-yl)-4-hydroxy-2-(p-tolyl)-3-(thiophene-2-carbonyl)-2H-pyrrol-5-one

> <PUBCHEM_IUPAC_CAS_NAME>
1-(6-ethoxy-1,3-benzothiazol-2-yl)-4-hydroxy-2-(4-methylphenyl)-3-[oxo(thiophen-2-yl)methyl]-2H-pyrrol-5-one

> <PUBCHEM_IUPAC_NAME>
1-(6-ethoxy-1,3-benzothiazol-2-yl)-4-hydroxy-2-(4-methylphenyl)-3-(thiophene-2-carbonyl)-2H-pyrrol-5-one

> <PUBCHEM_IUPAC_SYSTEMATIC_NAME>
1-(6-ethoxy-1,3-benzothiazol-2-yl)-2-(4-methylphenyl)-4-oxidanyl-3-thiophen-2-ylcarbonyl-2H-pyrrol-5-one

> <PUBCHEM_IUPAC_TRADITIONAL_NAME>
1-(6-ethoxy-1,3-benzothiazol-2-yl)-3-hydroxy-5-(p-tolyl)-4-(2-thenoyl)-3-pyrrolin-2-one

> <PUBCHEM_IUPAC_INCHI>
InChI=1S/C25H20N2O4S2/c1-3-31-16-10-11-17-19(13-16)33-25(26-17)27-21(15-8-6-14(2)7-9-15)20(23(29)24(27)30)22(28)18-5-4-12-32-18/h4-13,21,29H,3H2,1-2H3

> <PUBCHEM_IUPAC_INCHIKEY>
DYCUASWAAOUEFG-UHFFFAOYSA-N

> <PUBCHEM_XLOGP3_AA>
6.1

> <PUBCHEM_EXACT_MASS>
476.086

> <PUBCHEM_MOLECULAR_FORMULA>
C25H20N2O4S2

> <PUBCHEM_MOLECULAR_WEIGHT>
476.565

> <PUBCHEM_OPENEYE_CAN_SMILES>
CCOC1=CC2=C(C=C1)N=C(S2)N3C(C(=C(C3=O)O)C(=O)C4=CC=CS4)C5=CC=C(C=C5)C

> <PUBCHEM_OPENEYE_ISO_SMILES>
CCOC1=CC2=C(C=C1)N=C(S2)N3C(C(=C(C3=O)O)C(=O)C4=CC=CS4)C5=CC=C(C=C5)C

> <PUBCHEM_CACTVS_TPSA>
136

> <PUBCHEM_MONOISOTOPIC_WEIGHT>
476.086

> <PUBCHEM_TOTAL_CHARGE>
0

> <PUBCHEM_HEAVY_ATOM_COUNT>
33

> <PUBCHEM_ATOM_DEF_STEREO_COUNT>
0

> <PUBCHEM_ATOM_UDEF_STEREO_COUNT>
1

> <PUBCHEM_BOND_DEF_STEREO_COUNT>
0

> <PUBCHEM_BOND_UDEF_STEREO_COUNT>
0

> <PUBCHEM_ISOTOPIC_ATOM_COUNT>
0

> <PUBCHEM_COMPONENT_COUNT>
1

> <PUBCHEM_CACTVS_TAUTO_COUNT>
3

> <PUBCHEM_COORDINATE_TYPE>
1
5
255

> <PUBCHEM_BONDANNOTATIONS>
1  14  8
1  18  8
11  16  8
11  17  8
16  19  8
17  20  8
18  21  8
18  24  8
19  22  8
2  23  8
2  31  8
20  22  8
21  25  8
23  28  8
24  27  8
25  29  8
27  29  8
28  30  8
30  31  8
8  14  8
8  21  8
9  11  3

$$$$
118729145
  -OEChem-11021605012D

 68 72  0     1  0  0  0  0  0999 V2000
    7.2764    2.4092    0.0000 S   0  0  0  0  0  0  0  0  0  0  0  0
    9.1387    3.3645    0.0000 O   0  0  0  0  0  0  0  0  0  0  0  0
   11.2078    2.6922    0.0000 O   0  0  0  0  0  0  0  0  0  0  0  0
   12.1214    0.9234    0.0000 O   0  0  0  0  0  0  0  0  0  0  0  0
    3.7320    2.6044    0.0000 O   0  0  0  0  0  0  0  0  0  0  0  0
    8.8600    1.6044    0.0000 N   0  0  0  0  0  0  0  0  0  0  0  0
    7.2764    0.7997    0.0000 N   0  0  0  0  0  0  0  0  0  0  0  0
    9.4477    0.7954    0.0000 C   0  0  3  0  0  0  0  0  0  0  0  0
    6.9852   -2.3567    0.0000 C   0  0  0  0  0  0  0  0  0  0  0  0
    8.8321    0.0074    0.0000 C   0  0  0  0  0  0  0  0  0  0  0  0
    7.6008   -1.5687    0.0000 C   0  0  0  0  0  0  0  0  0  0  0  0
   10.3988    1.1044    0.0000 C   0  0  0  0  0  0  0  0  0  0  0  0
    9.2067   -0.9198    0.0000 C   0  0  0  0  0  0  0  0  0  0  0  0
    7.8418    0.1466    0.0000 C   0  0  0  0  0  0  0  0  0  0  0  0
    8.5910   -1.7078    0.0000 C   0  0  0  0  0  0  0  0  0  0  0  0
    7.2262   -0.6414    0.0000 C   0  0  0  0  0  0  0  0  0  0  0  0
    9.4477    2.4134    0.0000 C   0  0  0  0  0  0  0  0  0  0  0  0
   10.3988    2.1044    0.0000 C   0  0  0  0  0  0  0  0  0  0  0  0
    6.3695   -3.1447    0.0000 C   0  0  0  0  0  0  0  0  0  0  0  0
    6.1971   -1.7410    0.0000 C   0  0  0  0  0  0  0  0  0  0  0  0
    7.7732   -2.9723    0.0000 C   0  0  0  0  0  0  0  0  0  0  0  0
    7.8600    1.6044    0.0000 C   0  0  0  0  0  0  0  0  0  0  0  0
   11.2078    0.5167    0.0000 C   0  0  0  0  0  0  0  0  0  0  0  0
   11.4498   -0.4536    0.0000 C   0  0  0  0  0  0  0  0  0  0  0  0
    6.3301    2.1044    0.0000 C   0  0  0  0  0  0  0  0  0  0  0  0
    6.3301    1.1044    0.0000 C   0  0  0  0  0  0  0  0  0  0  0  0
   12.4110   -0.7293    0.0000 C   0  0  0  0  0  0  0  0  0  0  0  0
   10.7304   -1.1483    0.0000 C   0  0  0  0  0  0  0  0  0  0  0  0
    5.4641    2.6044    0.0000 C   0  0  0  0  0  0  0  0  0  0  0  0
    5.4641    0.6044    0.0000 C   0  0  0  0  0  0  0  0  0  0  0  0
   12.6529   -1.6996    0.0000 C   0  0  0  0  0  0  0  0  0  0  0  0
   10.9724   -2.1186    0.0000 C   0  0  0  0  0  0  0  0  0  0  0  0
    4.5981    2.1044    0.0000 C   0  0  0  0  0  0  0  0  0  0  0  0
   11.9337   -2.3942    0.0000 C   0  0  0  0  0  0  0  0  0  0  0  0
    4.5981    1.1044    0.0000 C   0  0  0  0  0  0  0  0  0  0  0  0
   12.1756   -3.3645    0.0000 C   0  0  0  0  0  0  0  0  0  0  0  0
    2.8660    2.1044    0.0000 C   0  0  0  0  0  0  0  0  0  0  0  0
    2.0000    2.6044    0.0000 C   0  0  0  0  0  0  0  0  0  0  0  0
    9.8034    0.2876    0.0000 H   0  0  0  0  0  0  0  0  0  0  0  0
    9.8206   -1.0061    0.0000 H   0  0  0  0  0  0  0  0  0  0  0  0
    7.6096    0.7214    0.0000 H   0  0  0  0  0  0  0  0  0  0  0  0
    8.8233   -2.2826    0.0000 H   0  0  0  0  0  0  0  0  0  0  0  0
    6.6122   -0.5552    0.0000 H   0  0  0  0  0  0  0  0  0  0  0  0
    7.3915   -3.4609    0.0000 H   0  0  0  0  0  0  0  0  0  0  0  0
    5.8809   -2.7630    0.0000 H   0  0  0  0  0  0  0  0  0  0  0  0
    5.9878   -3.6332    0.0000 H   0  0  0  0  0  0  0  0  0  0  0  0
    6.8580   -3.5264    0.0000 H   0  0  0  0  0  0  0  0  0  0  0  0
    6.5788   -1.2524    0.0000 H   0  0  0  0  0  0  0  0  0  0  0  0
    5.7085   -1.3593    0.0000 H   0  0  0  0  0  0  0  0  0  0  0  0
    5.8154   -2.2296    0.0000 H   0  0  0  0  0  0  0  0  0  0  0  0
    8.2618   -3.3540    0.0000 H   0  0  0  0  0  0  0  0  0  0  0  0
    8.1549   -2.4838    0.0000 H   0  0  0  0  0  0  0  0  0  0  0  0
   12.8570   -0.2986    0.0000 H   0  0  0  0  0  0  0  0  0  0  0  0
   10.1344   -0.9774    0.0000 H   0  0  0  0  0  0  0  0  0  0  0  0
   12.6230    0.5590    0.0000 H   0  0  0  0  0  0  0  0  0  0  0  0
    5.4641    3.2244    0.0000 H   0  0  0  0  0  0  0  0  0  0  0  0
    5.4641   -0.0156    0.0000 H   0  0  0  0  0  0  0  0  0  0  0  0
   13.2489   -1.8705    0.0000 H   0  0  0  0  0  0  0  0  0  0  0  0
   10.5264   -2.5493    0.0000 H   0  0  0  0  0  0  0  0  0  0  0  0
    4.0611    0.7944    0.0000 H   0  0  0  0  0  0  0  0  0  0  0  0
   11.5740   -3.5145    0.0000 H   0  0  0  0  0  0  0  0  0  0  0  0
   12.3256   -3.9661    0.0000 H   0  0  0  0  0  0  0  0  0  0  0  0
   12.7772   -3.2145    0.0000 H   0  0  0  0  0  0  0  0  0  0  0  0
    2.4675    1.6295    0.0000 H   0  0  0  0  0  0  0  0  0  0  0  0
    3.2646    1.6295    0.0000 H   0  0  0  0  0  0  0  0  0  0  0  0
    2.3100    3.1414    0.0000 H   0  0  0  0  0  0  0  0  0  0  0  0
    1.4631    2.9144    0.0000 H   0  0  0  0  0  0  0  0  0  0  0  0
    1.6900    2.0675    0.0000 H   0  0  0  0  0  0  0  0  0  0  0  0
  1 22  1  0  0  0  0
  1 25  1  0  0  0  0
  2 17  2  0  0  0  0
  3 18  2  0  0  0  0
  4 23  1  0  0  0  0
  4 55  1  0  0  0  0
  5 33  1  0  0  0  0
  5 37  1  0  0  0  0
  6  8  1  0  0  0  0
  6 17  1  0  0  0  0
  6 22  1  0  0  0  0
  7 22  2  0  0  0  0
  7 26  1  0  0  0  0
  8 10  1  0  0  0  0
  8 12  1  0  0  0  0
  8 39  1  0  0  0  0
  9 11  1  0  0  0  0
  9 19  1  0  0  0  0
  9 20  1  0  0  0  0
  9 21  1  0  0  0  0
 10 13  2  0  0  0  0
 10 14  1  0  0  0  0
 11 15  2  0  0  0  0
 11 16  1  0  0  0  0
 12 18  1  0  0  0  0
 12 23  2  0  0  0  0
 13 15  1  0  0  0  0
 13 40  1  0  0  0  0
 14 16  2  0  0  0  0
 14 41  1  0  0  0  0
 15 42  1  0  0  0  0
 16 43  1  0  0  0  0
 17 18  1  0  0  0  0
 19 45  1  0  0  0  0
 19 46  1  0  0  0  0
 19 47  1  0  0  0  0
 20 48  1  0  0  0  0
 20 49  1  0  0  0  0
 20 50  1  0  0  0  0
 21 44  1  0  0  0  0
 21 51  1  0  0  0  0
 21 52  1  0  0  0  0
 23 24  1  0  0  0  0
 24 27  2  0  0  0  0
 24 28  1  0  0  0  0
 25 26  2  0  0  0  0
 25 29  1  0  0  0  0
 26 30  1  0  0  0  0
 27 31  1  0  0  0  0
 27 53  1  0  0  0  0
 28 32  2  0  0  0  0
 28 54  1  0  0  0  0
 29 33  2  0  0  0  0
 29 56  1  0  0  0  0
 30 35  2  0  0  0  0
 30 57  1  0  0  0  0
 31 34  2  0  0  0  0
 31 58  1  0  0  0  0
 32 34  1  0  0  0  0
 32 59  1  0  0  0  0
 33 35  1  0  0  0  0
 34 36  1  0  0  0  0
 35 60  1  0  0  0  0
 36 61  1  0  0  0  0
 36 62  1  0  0  0  0
 36 63  1  0  0  0  0
 37 38  1  0  0  0  0
 37 64  1  0  0  0  0
 37 65  1  0  0  0  0
 38 66  1  0  0  0  0
 38 67  1  0  0  0  0
 38 68  1  0  0  0  0
M  END
> <PUBCHEM_COMPOUND_CID>
118729145

> <PUBCHEM_COMPOUND_CANONICALIZED>
1

> <PUBCHEM_CACTVS_COMPLEXITY>
913

> <PUBCHEM_CACTVS_HBOND_ACCEPTOR>
6

> <PUBCHEM_CACTVS_HBOND_DONOR>
1

> <PUBCHEM_CACTVS_ROTATABLE_BOND>
6

> <PUBCHEM_CACTVS_SUBSKEYS>
AAADceB7OABAAAAAAAAAAAAAAAAAAWLAAAAwYMAAAAAAAFgB9AAAHgQACAAADizh3gYz17MIFgisA6VydACD+KlhKjhJmD2+bNiMJrrkubuGeCjsxxPI+Se8yPCPwEAABAAAAQCAgAAIAAACAAAAAAAAAA==

> <PUBCHEM_IUPAC_OPENEYE_NAME>
(4Z)-5-(4-tert-butylphenyl)-1-(6-ethoxy-1,3-benzothiazol-2-yl)-4-[hydroxy(p-tolyl)methylene]pyrrolidine-2,3-dione

> <PUBCHEM_IUPAC_CAS_NAME>
(4Z)-5-(4-tert-butylphenyl)-1-(6-ethoxy-1,3-benzothiazol-2-yl)-4-[hydroxy-(4-methylphenyl)methylidene]pyrrolidine-2,3-dione

> <PUBCHEM_IUPAC_NAME>
(4Z)-5-(4-tert-butylphenyl)-1-(6-ethoxy-1,3-benzothiazol-2-yl)-4-[hydroxy-(4-methylphenyl)methylidene]pyrrolidine-2,3-dione

> <PUBCHEM_IUPAC_SYSTEMATIC_NAME>
(4Z)-5-(4-tert-butylphenyl)-1-(6-ethoxy-1,3-benzothiazol-2-yl)-4-[(4-methylphenyl)-oxidanyl-methylidene]pyrrolidine-2,3-dione

> <PUBCHEM_IUPAC_TRADITIONAL_NAME>
(4Z)-5-(4-tert-butylphenyl)-1-(6-ethoxy-1,3-benzothiazol-2-yl)-4-[hydroxy(p-tolyl)methylene]pyrrolidine-2,3-quinone

> <PUBCHEM_IUPAC_INCHI>
InChI=1S/C31H30N2O4S/c1-6-37-22-15-16-23-24(17-22)38-30(32-23)33-26(19-11-13-21(14-12-19)31(3,4)5)25(28(35)29(33)36)27(34)20-9-7-18(2)8-10-20/h7-17,26,34H,6H2,1-5H3/b27-25-

> <PUBCHEM_IUPAC_INCHIKEY>
GDVDRSQIIFUXEG-RFBIWTDZSA-N

> <PUBCHEM_XLOGP3_AA>
7.7

> <PUBCHEM_EXACT_MASS>
526.193

> <PUBCHEM_MOLECULAR_FORMULA>
C31H30N2O4S

> <PUBCHEM_MOLECULAR_WEIGHT>
526.651

> <PUBCHEM_OPENEYE_CAN_SMILES>
CCOC1=CC2=C(C=C1)N=C(S2)N3C(C(=C(C4=CC=C(C=C4)C)O)C(=O)C3=O)C5=CC=C(C=C5)C(C)(C)C

> <PUBCHEM_OPENEYE_ISO_SMILES>
CCOC1=CC2=C(C=C1)N=C(S2)N3C(/C(=C(\C4=CC=C(C=C4)C)/O)/C(=O)C3=O)C5=CC=C(C=C5)C(C)(C)C

> <PUBCHEM_CACTVS_TPSA>
108

> <PUBCHEM_MONOISOTOPIC_WEIGHT>
526.193

> <PUBCHEM_TOTAL_CHARGE>
0

> <PUBCHEM_HEAVY_ATOM_COUNT>
38

> <PUBCHEM_ATOM_DEF_STEREO_COUNT>
0

> <PUBCHEM_ATOM_UDEF_STEREO_COUNT>
1

> <PUBCHEM_BOND_DEF_STEREO_COUNT>
1

> <PUBCHEM_BOND_UDEF_STEREO_COUNT>
0

> <PUBCHEM_ISOTOPIC_ATOM_COUNT>
0

> <PUBCHEM_COMPONENT_COUNT>
1

> <PUBCHEM_CACTVS_TAUTO_COUNT>
11

> <PUBCHEM_COORDINATE_TYPE>
1
5
255

> <PUBCHEM_BONDANNOTATIONS>
1  22  8
1  25  8
10  13  8
10  14  8
11  15  8
11  16  8
13  15  8
14  16  8
24  27  8
24  28  8
25  26  8
25  29  8
26  30  8
27  31  8
28  32  8
29  33  8
30  35  8
31  34  8
32  34  8
33  35  8
7  22  8
7  26  8
8  10  3

$$$$
6275437
  -OEChem-11021605012D

 65 70  0     1  0  0  0  0  0999 V2000
    2.0000    1.5548    0.0000 Cl  0  0  0  0  0  0  0  0  0  0  0  0
    5.5045    2.1195    0.0000 S   0  0  0  0  0  0  0  0  0  0  0  0
    9.4440    1.2490    0.0000 O   0  0  0  0  0  0  0  0  0  0  0  0
    9.2166    4.4126    0.0000 O   0  0  0  0  0  0  0  0  0  0  0  0
    7.0886    4.8649    0.0000 O   0  0  0  0  0  0  0  0  0  0  0  0
    6.8328   -1.5704    0.0000 O   0  0  0  0  0  0  0  0  0  0  0  0
   12.9360    2.2143    0.0000 O   0  0  0  0  0  0  0  0  0  0  0  0
   12.9360    4.2836    0.0000 O   0  0  0  0  0  0  0  0  0  0  0  0
    6.9953    3.0854    0.0000 N   0  0  0  0  0  0  0  0  0  0  0  0
    5.3362    3.7202    0.0000 N   0  0  0  0  0  0  0  0  0  0  0  0
    7.6644    2.3422    0.0000 C   0  0  3  0  0  0  0  0  0  0  0  0
    8.5780    2.7489    0.0000 C   0  0  0  0  0  0  0  0  0  0  0  0
    7.4565    1.3641    0.0000 C   0  0  0  0  0  0  0  0  0  0  0  0
    8.4734    3.7435    0.0000 C   0  0  0  0  0  0  0  0  0  0  0  0
    7.4953    3.9514    0.0000 C   0  0  0  0  0  0  0  0  0  0  0  0
    9.4440    2.2489    0.0000 C   0  0  0  0  0  0  0  0  0  0  0  0
    6.0008    2.9808    0.0000 C   0  0  0  0  0  0  0  0  0  0  0  0
    6.5054    1.0550    0.0000 C   0  0  0  0  0  0  0  0  0  0  0  0
    8.1996    0.6949    0.0000 C   0  0  0  0  0  0  0  0  0  0  0  0
   10.3100    2.7489    0.0000 C   0  0  0  0  0  0  0  0  0  0  0  0
    6.2975    0.0769    0.0000 C   0  0  0  0  0  0  0  0  0  0  0  0
    7.9917   -0.2832    0.0000 C   0  0  0  0  0  0  0  0  0  0  0  0
    7.0407   -0.5922    0.0000 C   0  0  0  0  0  0  0  0  0  0  0  0
   11.1760    2.2489    0.0000 C   0  0  0  0  0  0  0  0  0  0  0  0
    4.5316    2.3237    0.0000 C   0  0  0  0  0  0  0  0  0  0  0  0
    4.4271    3.3182    0.0000 C   0  0  0  0  0  0  0  0  0  0  0  0
   10.3100    3.7490    0.0000 C   0  0  0  0  0  0  0  0  0  0  0  0
   12.0421    2.7489    0.0000 C   0  0  0  0  0  0  0  0  0  0  0  0
   12.0421    3.7490    0.0000 C   0  0  0  0  0  0  0  0  0  0  0  0
   11.1760    4.2490    0.0000 C   0  0  0  0  0  0  0  0  0  0  0  0
    7.5759   -2.2395    0.0000 C   0  0  0  0  0  0  0  0  0  0  0  0
    3.7226    1.7359    0.0000 C   0  0  0  0  0  0  0  0  0  0  0  0
    3.5135    3.7249    0.0000 C   0  0  0  0  0  0  0  0  0  0  0  0
    7.3680   -3.2176    0.0000 C   0  0  0  0  0  0  0  0  0  0  0  0
   13.8421    2.7281    0.0000 C   0  0  0  0  0  0  0  0  0  0  0  0
   13.8421    3.7698    0.0000 C   0  0  0  0  0  0  0  0  0  0  0  0
    8.1112   -3.8868    0.0000 C   0  0  0  0  0  0  0  0  0  0  0  0
    2.8090    2.1426    0.0000 C   0  0  0  0  0  0  0  0  0  0  0  0
    2.7045    3.1371    0.0000 C   0  0  0  0  0  0  0  0  0  0  0  0
    7.9032   -4.8649    0.0000 C   0  0  0  0  0  0  0  0  0  0  0  0
    7.0655    2.1818    0.0000 H   0  0  0  0  0  0  0  0  0  0  0  0
    6.0447    1.4699    0.0000 H   0  0  0  0  0  0  0  0  0  0  0  0
    8.7893    0.8865    0.0000 H   0  0  0  0  0  0  0  0  0  0  0  0
    5.7079   -0.1147    0.0000 H   0  0  0  0  0  0  0  0  0  0  0  0
    8.4525   -0.6981    0.0000 H   0  0  0  0  0  0  0  0  0  0  0  0
   11.1760    1.6289    0.0000 H   0  0  0  0  0  0  0  0  0  0  0  0
    9.7731    4.0590    0.0000 H   0  0  0  0  0  0  0  0  0  0  0  0
    9.9809    0.9390    0.0000 H   0  0  0  0  0  0  0  0  0  0  0  0
   11.1760    4.8690    0.0000 H   0  0  0  0  0  0  0  0  0  0  0  0
    8.1508   -2.4718    0.0000 H   0  0  0  0  0  0  0  0  0  0  0  0
    7.9045   -1.7137    0.0000 H   0  0  0  0  0  0  0  0  0  0  0  0
    3.7874    1.1193    0.0000 H   0  0  0  0  0  0  0  0  0  0  0  0
    3.4487    4.3415    0.0000 H   0  0  0  0  0  0  0  0  0  0  0  0
    6.7932   -2.9854    0.0000 H   0  0  0  0  0  0  0  0  0  0  0  0
    7.0394   -3.7434    0.0000 H   0  0  0  0  0  0  0  0  0  0  0  0
   14.0511    2.1444    0.0000 H   0  0  0  0  0  0  0  0  0  0  0  0
   14.4529    2.8342    0.0000 H   0  0  0  0  0  0  0  0  0  0  0  0
   14.4529    3.6637    0.0000 H   0  0  0  0  0  0  0  0  0  0  0  0
   14.0511    4.3535    0.0000 H   0  0  0  0  0  0  0  0  0  0  0  0
    8.6860   -4.1190    0.0000 H   0  0  0  0  0  0  0  0  0  0  0  0
    8.4397   -3.3610    0.0000 H   0  0  0  0  0  0  0  0  0  0  0  0
    2.1381    3.3893    0.0000 H   0  0  0  0  0  0  0  0  0  0  0  0
    7.2968   -4.7360    0.0000 H   0  0  0  0  0  0  0  0  0  0  0  0
    7.7743   -5.4714    0.0000 H   0  0  0  0  0  0  0  0  0  0  0  0
    8.5097   -4.9938    0.0000 H   0  0  0  0  0  0  0  0  0  0  0  0
  1 38  1  0  0  0  0
  2 17  1  0  0  0  0
  2 25  1  0  0  0  0
  3 16  1  0  0  0  0
  3 48  1  0  0  0  0
  4 14  2  0  0  0  0
  5 15  2  0  0  0  0
  6 23  1  0  0  0  0
  6 31  1  0  0  0  0
  7 28  1  0  0  0  0
  7 35  1  0  0  0  0
  8 29  1  0  0  0  0
  8 36  1  0  0  0  0
  9 11  1  0  0  0  0
  9 15  1  0  0  0  0
  9 17  1  0  0  0  0
 10 17  2  0  0  0  0
 10 26  1  0  0  0  0
 11 12  1  0  0  0  0
 11 13  1  0  0  0  0
 11 41  1  0  0  0  0
 12 14  1  0  0  0  0
 12 16  2  0  0  0  0
 13 18  2  0  0  0  0
 13 19  1  0  0  0  0
 14 15  1  0  0  0  0
 16 20  1  0  0  0  0
 18 21  1  0  0  0  0
 18 42  1  0  0  0  0
 19 22  2  0  0  0  0
 19 43  1  0  0  0  0
 20 24  2  0  0  0  0
 20 27  1  0  0  0  0
 21 23  2  0  0  0  0
 21 44  1  0  0  0  0
 22 23  1  0  0  0  0
 22 45  1  0  0  0  0
 24 28  1  0  0  0  0
 24 46  1  0  0  0  0
 25 26  2  0  0  0  0
 25 32  1  0  0  0  0
 26 33  1  0  0  0  0
 27 30  2  0  0  0  0
 27 47  1  0  0  0  0
 28 29  2  0  0  0  0
 29 30  1  0  0  0  0
 30 49  1  0  0  0  0
 31 34  1  0  0  0  0
 31 50  1  0  0  0  0
 31 51  1  0  0  0  0
 32 38  2  0  0  0  0
 32 52  1  0  0  0  0
 33 39  2  0  0  0  0
 33 53  1  0  0  0  0
 34 37  1  0  0  0  0
 34 54  1  0  0  0  0
 34 55  1  0  0  0  0
 35 36  1  0  0  0  0
 35 56  1  0  0  0  0
 35 57  1  0  0  0  0
 36 58  1  0  0  0  0
 36 59  1  0  0  0  0
 37 40  1  0  0  0  0
 37 60  1  0  0  0  0
 37 61  1  0  0  0  0
 38 39  1  0  0  0  0
 39 62  1  0  0  0  0
 40 63  1  0  0  0  0
 40 64  1  0  0  0  0
 40 65  1  0  0  0  0
M  END
> <PUBCHEM_COMPOUND_CID>
6275437

> <PUBCHEM_COMPOUND_CANONICALIZED>
1

> <PUBCHEM_CACTVS_COMPLEXITY>
974

> <PUBCHEM_CACTVS_HBOND_ACCEPTOR>
8

> <PUBCHEM_CACTVS_HBOND_DONOR>
1

> <PUBCHEM_CACTVS_ROTATABLE_BOND>
7

> <PUBCHEM_CACTVS_SUBSKEYS>
AAADceB7OABEAAAAAAAAAAAAAAAAAWLAAAA0YMEAAAAAAFiR9AAAHgYACAAADC7h3iYz17MIFgisA6VydACD+KlhLzhJmD2+7tiNJrrlu7uGeCrsxxPK+Sfc+L+OIABBABAAQQBAAIIAIACCAAAAAAAAAA==

> <PUBCHEM_IUPAC_OPENEYE_NAME>
(4E)-5-(4-butoxyphenyl)-1-(6-chloro-1,3-benzothiazol-2-yl)-4-[2,3-dihydro-1,4-benzodioxin-6-yl(hydroxy)methylene]pyrrolidine-2,3-dione

> <PUBCHEM_IUPAC_CAS_NAME>
(4E)-5-(4-butoxyphenyl)-1-(6-chloro-1,3-benzothiazol-2-yl)-4-[2,3-dihydro-1,4-benzodioxin-6-yl(hydroxy)methylidene]pyrrolidine-2,3-dione

> <PUBCHEM_IUPAC_NAME>
(4E)-5-(4-butoxyphenyl)-1-(6-chloro-1,3-benzothiazol-2-yl)-4-[2,3-dihydro-1,4-benzodioxin-6-yl(hydroxy)methylidene]pyrrolidine-2,3-dione

> <PUBCHEM_IUPAC_SYSTEMATIC_NAME>
(4E)-5-(4-butoxyphenyl)-1-(6-chloranyl-1,3-benzothiazol-2-yl)-4-[2,3-dihydro-1,4-benzodioxin-6-yl(oxidanyl)methylidene]pyrrolidine-2,3-dione

> <PUBCHEM_IUPAC_TRADITIONAL_NAME>
(4E)-5-(4-butoxyphenyl)-1-(6-chloro-1,3-benzothiazol-2-yl)-4-[2,3-dihydro-1,4-benzodioxin-6-yl(hydroxy)methylene]pyrrolidine-2,3-quinone

> <PUBCHEM_IUPAC_INCHI>
InChI=1S/C30H25ClN2O6S/c1-2-3-12-37-20-8-4-17(5-9-20)26-25(27(34)18-6-11-22-23(15-18)39-14-13-38-22)28(35)29(36)33(26)30-32-21-10-7-19(31)16-24(21)40-30/h4-11,15-16,26,34H,2-3,12-14H2,1H3/b27-25+

> <PUBCHEM_IUPAC_INCHIKEY>
QWNAUEZMJBUIPZ-IMVLJIQESA-N

> <PUBCHEM_XLOGP3_AA>
6.9

> <PUBCHEM_EXACT_MASS>
576.112

> <PUBCHEM_MOLECULAR_FORMULA>
C30H25ClN2O6S

> <PUBCHEM_MOLECULAR_WEIGHT>
577.048

> <PUBCHEM_OPENEYE_CAN_SMILES>
CCCCOC1=CC=C(C=C1)C2C(=C(C3=CC4=C(C=C3)OCCO4)O)C(=O)C(=O)N2C5=NC6=C(S5)C=C(C=C6)Cl

> <PUBCHEM_OPENEYE_ISO_SMILES>
CCCCOC1=CC=C(C=C1)C2/C(=C(/C3=CC4=C(C=C3)OCCO4)\O)/C(=O)C(=O)N2C5=NC6=C(S5)C=C(C=C6)Cl

> <PUBCHEM_CACTVS_TPSA>
126

> <PUBCHEM_MONOISOTOPIC_WEIGHT>
576.112

> <PUBCHEM_TOTAL_CHARGE>
0

> <PUBCHEM_HEAVY_ATOM_COUNT>
40

> <PUBCHEM_ATOM_DEF_STEREO_COUNT>
0

> <PUBCHEM_ATOM_UDEF_STEREO_COUNT>
1

> <PUBCHEM_BOND_DEF_STEREO_COUNT>
1

> <PUBCHEM_BOND_UDEF_STEREO_COUNT>
0

> <PUBCHEM_ISOTOPIC_ATOM_COUNT>
0

> <PUBCHEM_COMPONENT_COUNT>
1

> <PUBCHEM_CACTVS_TAUTO_COUNT>
3

> <PUBCHEM_COORDINATE_TYPE>
1
5
255

> <PUBCHEM_BONDANNOTATIONS>
10  17  8
10  26  8
11  13  3
13  18  8
13  19  8
18  21  8
19  22  8
2  17  8
2  25  8
20  24  8
20  27  8
21  23  8
22  23  8
24  28  8
25  26  8
25  32  8
26  33  8
27  30  8
28  29  8
29  30  8
32  38  8
33  39  8
38  39  8

$$$$
3530671
  -OEChem-11021605012D

 58 62  0     1  0  0  0  0  0999 V2000
    5.5443    2.7069    0.0000 S   0  0  0  0  0  0  0  0  0  0  0  0
    2.0000    2.9021    0.0000 F   0  0  0  0  0  0  0  0  0  0  0  0
    9.4758    2.9899    0.0000 O   0  0  0  0  0  0  0  0  0  0  0  0
    7.4067    3.6622    0.0000 O   0  0  0  0  0  0  0  0  0  0  0  0
   10.5972    2.1992    0.0000 O   0  0  0  0  0  0  0  0  0  0  0  0
    9.3712   -0.1802    0.0000 O   0  0  0  0  0  0  0  0  0  0  0  0
    7.1279    1.9021    0.0000 N   0  0  0  0  0  0  0  0  0  0  0  0
    5.5443    1.0974    0.0000 N   0  0  0  0  0  0  0  0  0  0  0  0
    7.7157    1.0931    0.0000 C   0  0  3  0  0  0  0  0  0  0  0  0
    6.4796   -2.7111    0.0000 C   0  0  0  0  0  0  0  0  0  0  0  0
    7.4067    0.1420    0.0000 C   0  0  0  0  0  0  0  0  0  0  0  0
    8.6668    1.4021    0.0000 C   0  0  0  0  0  0  0  0  0  0  0  0
    6.7886   -1.7601    0.0000 C   0  0  0  0  0  0  0  0  0  0  0  0
    6.4285   -0.0659    0.0000 C   0  0  0  0  0  0  0  0  0  0  0  0
    8.0758   -0.6011    0.0000 C   0  0  0  0  0  0  0  0  0  0  0  0
    8.6668    2.4021    0.0000 C   0  0  0  0  0  0  0  0  0  0  0  0
    7.7157    2.7111    0.0000 C   0  0  0  0  0  0  0  0  0  0  0  0
    6.1195   -1.0169    0.0000 C   0  0  0  0  0  0  0  0  0  0  0  0
    7.7668   -1.5522    0.0000 C   0  0  0  0  0  0  0  0  0  0  0  0
    6.1706   -3.6622    0.0000 C   0  0  0  0  0  0  0  0  0  0  0  0
    7.4307   -3.0202    0.0000 C   0  0  0  0  0  0  0  0  0  0  0  0
    5.5286   -2.4021    0.0000 C   0  0  0  0  0  0  0  0  0  0  0  0
    6.1279    1.9021    0.0000 C   0  0  0  0  0  0  0  0  0  0  0  0
    9.4758    0.8143    0.0000 C   0  0  0  0  0  0  0  0  0  0  0  0
   10.3893    1.2211    0.0000 C   0  0  0  0  0  0  0  0  0  0  0  0
    4.5981    2.4021    0.0000 C   0  0  0  0  0  0  0  0  0  0  0  0
    4.5981    1.4021    0.0000 C   0  0  0  0  0  0  0  0  0  0  0  0
   11.2553    0.7211    0.0000 C   0  0  0  0  0  0  0  0  0  0  0  0
    3.7320    2.9021    0.0000 C   0  0  0  0  0  0  0  0  0  0  0  0
    3.7320    0.9021    0.0000 C   0  0  0  0  0  0  0  0  0  0  0  0
   11.5917    2.3037    0.0000 C   0  0  0  0  0  0  0  0  0  0  0  0
   11.9985    1.3902    0.0000 C   0  0  0  0  0  0  0  0  0  0  0  0
    2.8660    2.4021    0.0000 C   0  0  0  0  0  0  0  0  0  0  0  0
    2.8660    1.4021    0.0000 C   0  0  0  0  0  0  0  0  0  0  0  0
   12.0917    3.1698    0.0000 C   0  0  0  0  0  0  0  0  0  0  0  0
    6.8762    0.9601    0.0000 H   0  0  0  0  0  0  0  0  0  0  0  0
    6.0137    0.3949    0.0000 H   0  0  0  0  0  0  0  0  0  0  0  0
    8.6822   -0.4722    0.0000 H   0  0  0  0  0  0  0  0  0  0  0  0
    5.5131   -1.1458    0.0000 H   0  0  0  0  0  0  0  0  0  0  0  0
    8.1816   -2.0129    0.0000 H   0  0  0  0  0  0  0  0  0  0  0  0
    5.7202   -1.8125    0.0000 H   0  0  0  0  0  0  0  0  0  0  0  0
    4.9389   -2.2105    0.0000 H   0  0  0  0  0  0  0  0  0  0  0  0
    5.3370   -2.9918    0.0000 H   0  0  0  0  0  0  0  0  0  0  0  0
    7.2391   -3.6098    0.0000 H   0  0  0  0  0  0  0  0  0  0  0  0
    8.0203   -3.2117    0.0000 H   0  0  0  0  0  0  0  0  0  0  0  0
    7.6223   -2.4305    0.0000 H   0  0  0  0  0  0  0  0  0  0  0  0
    5.5809   -3.4706    0.0000 H   0  0  0  0  0  0  0  0  0  0  0  0
    5.9790   -4.2518    0.0000 H   0  0  0  0  0  0  0  0  0  0  0  0
    6.7603   -3.8538    0.0000 H   0  0  0  0  0  0  0  0  0  0  0  0
    9.4110    3.6065    0.0000 H   0  0  0  0  0  0  0  0  0  0  0  0
   11.3201    0.1045    0.0000 H   0  0  0  0  0  0  0  0  0  0  0  0
    3.7320    3.5221    0.0000 H   0  0  0  0  0  0  0  0  0  0  0  0
    3.7320    0.2821    0.0000 H   0  0  0  0  0  0  0  0  0  0  0  0
   12.6049    1.2613    0.0000 H   0  0  0  0  0  0  0  0  0  0  0  0
    2.3291    1.0921    0.0000 H   0  0  0  0  0  0  0  0  0  0  0  0
   12.6287    2.8598    0.0000 H   0  0  0  0  0  0  0  0  0  0  0  0
   12.4017    3.7067    0.0000 H   0  0  0  0  0  0  0  0  0  0  0  0
   11.5548    3.4798    0.0000 H   0  0  0  0  0  0  0  0  0  0  0  0
  1 23  1  0  0  0  0
  1 26  1  0  0  0  0
  2 33  1  0  0  0  0
  3 16  1  0  0  0  0
  3 50  1  0  0  0  0
  4 17  2  0  0  0  0
  5 25  1  0  0  0  0
  5 31  1  0  0  0  0
  6 24  2  0  0  0  0
  7  9  1  0  0  0  0
  7 17  1  0  0  0  0
  7 23  1  0  0  0  0
  8 23  2  0  0  0  0
  8 27  1  0  0  0  0
  9 11  1  0  0  0  0
  9 12  1  0  0  0  0
  9 36  1  0  0  0  0
 10 13  1  0  0  0  0
 10 20  1  0  0  0  0
 10 21  1  0  0  0  0
 10 22  1  0  0  0  0
 11 14  2  0  0  0  0
 11 15  1  0  0  0  0
 12 16  2  0  0  0  0
 12 24  1  0  0  0  0
 13 18  2  0  0  0  0
 13 19  1  0  0  0  0
 14 18  1  0  0  0  0
 14 37  1  0  0  0  0
 15 19  2  0  0  0  0
 15 38  1  0  0  0  0
 16 17  1  0  0  0  0
 18 39  1  0  0  0  0
 19 40  1  0  0  0  0
 20 47  1  0  0  0  0
 20 48  1  0  0  0  0
 20 49  1  0  0  0  0
 21 44  1  0  0  0  0
 21 45  1  0  0  0  0
 21 46  1  0  0  0  0
 22 41  1  0  0  0  0
 22 42  1  0  0  0  0
 22 43  1  0  0  0  0
 24 25  1  0  0  0  0
 25 28  2  0  0  0  0
 26 27  2  0  0  0  0
 26 29  1  0  0  0  0
 27 30  1  0  0  0  0
 28 32  1  0  0  0  0
 28 51  1  0  0  0  0
 29 33  2  0  0  0  0
 29 52  1  0  0  0  0
 30 34  2  0  0  0  0
 30 53  1  0  0  0  0
 31 32  2  0  0  0  0
 31 35  1  0  0  0  0
 32 54  1  0  0  0  0
 33 34  1  0  0  0  0
 34 55  1  0  0  0  0
 35 56  1  0  0  0  0
 35 57  1  0  0  0  0
 35 58  1  0  0  0  0
M  END
> <PUBCHEM_COMPOUND_CID>
3530671

> <PUBCHEM_COMPOUND_CANONICALIZED>
1

> <PUBCHEM_CACTVS_COMPLEXITY>
881

> <PUBCHEM_CACTVS_HBOND_ACCEPTOR>
7

> <PUBCHEM_CACTVS_HBOND_DONOR>
1

> <PUBCHEM_CACTVS_ROTATABLE_BOND>
5

> <PUBCHEM_CACTVS_SUBSKEYS>
AAADceB7OQBAAAAAAAAAAAAAAAAAAWJEAAAwYAAAAAAAAFgB/AAAHwQACAAADizB3gwz1bMIFkisA6VydAKD+KllKjhJmD1+bNiOJrrkvZ+GOSjsxxPY6ae8zvDvwAAAAAAAAQCAAAAAAAACAAAAAAAAAA==

> <PUBCHEM_IUPAC_OPENEYE_NAME>
2-(4-tert-butylphenyl)-1-(6-fluoro-1,3-benzothiazol-2-yl)-4-hydroxy-3-(5-methylfuran-2-carbonyl)-2H-pyrrol-5-one

> <PUBCHEM_IUPAC_CAS_NAME>
2-(4-tert-butylphenyl)-1-(6-fluoro-1,3-benzothiazol-2-yl)-4-hydroxy-3-[(5-methyl-2-furanyl)-oxomethyl]-2H-pyrrol-5-one

> <PUBCHEM_IUPAC_NAME>
2-(4-tert-butylphenyl)-1-(6-fluoro-1,3-benzothiazol-2-yl)-4-hydroxy-3-(5-methylfuran-2-carbonyl)-2H-pyrrol-5-one

> <PUBCHEM_IUPAC_SYSTEMATIC_NAME>
2-(4-tert-butylphenyl)-1-(6-fluoranyl-1,3-benzothiazol-2-yl)-3-(5-methylfuran-2-yl)carbonyl-4-oxidanyl-2H-pyrrol-5-one

> <PUBCHEM_IUPAC_TRADITIONAL_NAME>
5-(4-tert-butylphenyl)-1-(6-fluoro-1,3-benzothiazol-2-yl)-3-hydroxy-4-(5-methyl-2-furoyl)-3-pyrrolin-2-one

> <PUBCHEM_IUPAC_INCHI>
InChI=1S/C27H23FN2O4S/c1-14-5-12-19(34-14)23(31)21-22(15-6-8-16(9-7-15)27(2,3)4)30(25(33)24(21)32)26-29-18-11-10-17(28)13-20(18)35-26/h5-13,22,32H,1-4H3

> <PUBCHEM_IUPAC_INCHIKEY>
WBMPHPLCRYIDMC-UHFFFAOYSA-N

> <PUBCHEM_XLOGP3_AA>
6.9

> <PUBCHEM_EXACT_MASS>
490.136

> <PUBCHEM_MOLECULAR_FORMULA>
C27H23FN2O4S

> <PUBCHEM_MOLECULAR_WEIGHT>
490.549

> <PUBCHEM_OPENEYE_CAN_SMILES>
CC1=CC=C(O1)C(=O)C2=C(C(=O)N(C2C3=CC=C(C=C3)C(C)(C)C)C4=NC5=C(S4)C=C(C=C5)F)O

> <PUBCHEM_OPENEYE_ISO_SMILES>
CC1=CC=C(O1)C(=O)C2=C(C(=O)N(C2C3=CC=C(C=C3)C(C)(C)C)C4=NC5=C(S4)C=C(C=C5)F)O

> <PUBCHEM_CACTVS_TPSA>
112

> <PUBCHEM_MONOISOTOPIC_WEIGHT>
490.136

> <PUBCHEM_TOTAL_CHARGE>
0

> <PUBCHEM_HEAVY_ATOM_COUNT>
35

> <PUBCHEM_ATOM_DEF_STEREO_COUNT>
0

> <PUBCHEM_ATOM_UDEF_STEREO_COUNT>
1

> <PUBCHEM_BOND_DEF_STEREO_COUNT>
0

> <PUBCHEM_BOND_UDEF_STEREO_COUNT>
0

> <PUBCHEM_ISOTOPIC_ATOM_COUNT>
0

> <PUBCHEM_COMPONENT_COUNT>
1

> <PUBCHEM_CACTVS_TAUTO_COUNT>
11

> <PUBCHEM_COORDINATE_TYPE>
1
5
255

> <PUBCHEM_BONDANNOTATIONS>
1  23  8
1  26  8
11  14  8
11  15  8
13  18  8
13  19  8
14  18  8
15  19  8
25  28  8
26  27  8
26  29  8
27  30  8
28  32  8
29  33  8
30  34  8
31  32  8
33  34  8
5  25  8
5  31  8
8  23  8
8  27  8
9  36  3

$$$$
6275433
  -OEChem-11021605012D

 64 69  0     1  0  0  0  0  0999 V2000
    2.0000    0.3966    0.0000 Cl  0  0  0  0  0  0  0  0  0  0  0  0
    5.5045    0.9613    0.0000 S   0  0  0  0  0  0  0  0  0  0  0  0
    9.4440    0.0907    0.0000 O   0  0  0  0  0  0  0  0  0  0  0  0
    9.2166    3.2544    0.0000 O   0  0  0  0  0  0  0  0  0  0  0  0
    7.0886    3.7067    0.0000 O   0  0  0  0  0  0  0  0  0  0  0  0
   12.9360    1.0561    0.0000 O   0  0  0  0  0  0  0  0  0  0  0  0
   12.9360    3.1254    0.0000 O   0  0  0  0  0  0  0  0  0  0  0  0
    6.9953    1.9272    0.0000 N   0  0  0  0  0  0  0  0  0  0  0  0
    5.3362    2.5620    0.0000 N   0  0  0  0  0  0  0  0  0  0  0  0
    7.6644    1.1840    0.0000 C   0  0  3  0  0  0  0  0  0  0  0  0
    6.8328   -2.7286    0.0000 C   0  0  0  0  0  0  0  0  0  0  0  0
    7.4565    0.2059    0.0000 C   0  0  0  0  0  0  0  0  0  0  0  0
    8.5780    1.5908    0.0000 C   0  0  0  0  0  0  0  0  0  0  0  0
    7.0407   -1.7504    0.0000 C   0  0  0  0  0  0  0  0  0  0  0  0
    6.5054   -0.1032    0.0000 C   0  0  0  0  0  0  0  0  0  0  0  0
    8.1996   -0.4633    0.0000 C   0  0  0  0  0  0  0  0  0  0  0  0
    8.4734    2.5853    0.0000 C   0  0  0  0  0  0  0  0  0  0  0  0
    7.4953    2.7932    0.0000 C   0  0  0  0  0  0  0  0  0  0  0  0
    6.2975   -1.0813    0.0000 C   0  0  0  0  0  0  0  0  0  0  0  0
    7.9917   -1.4414    0.0000 C   0  0  0  0  0  0  0  0  0  0  0  0
    6.6249   -3.7067    0.0000 C   0  0  0  0  0  0  0  0  0  0  0  0
    7.8109   -2.9365    0.0000 C   0  0  0  0  0  0  0  0  0  0  0  0
    5.8546   -2.5207    0.0000 C   0  0  0  0  0  0  0  0  0  0  0  0
    9.4440    1.0908    0.0000 C   0  0  0  0  0  0  0  0  0  0  0  0
    6.0008    1.8226    0.0000 C   0  0  0  0  0  0  0  0  0  0  0  0
   10.3100    1.5908    0.0000 C   0  0  0  0  0  0  0  0  0  0  0  0
    4.5316    1.1655    0.0000 C   0  0  0  0  0  0  0  0  0  0  0  0
    4.4271    2.1600    0.0000 C   0  0  0  0  0  0  0  0  0  0  0  0
   11.1760    1.0908    0.0000 C   0  0  0  0  0  0  0  0  0  0  0  0
   10.3100    2.5908    0.0000 C   0  0  0  0  0  0  0  0  0  0  0  0
   12.0421    1.5908    0.0000 C   0  0  0  0  0  0  0  0  0  0  0  0
   12.0421    2.5908    0.0000 C   0  0  0  0  0  0  0  0  0  0  0  0
   11.1760    3.0908    0.0000 C   0  0  0  0  0  0  0  0  0  0  0  0
    3.7226    0.5777    0.0000 C   0  0  0  0  0  0  0  0  0  0  0  0
    3.5135    2.5667    0.0000 C   0  0  0  0  0  0  0  0  0  0  0  0
   13.8421    1.5699    0.0000 C   0  0  0  0  0  0  0  0  0  0  0  0
   13.8421    2.6116    0.0000 C   0  0  0  0  0  0  0  0  0  0  0  0
    2.8090    0.9844    0.0000 C   0  0  0  0  0  0  0  0  0  0  0  0
    2.7045    1.9789    0.0000 C   0  0  0  0  0  0  0  0  0  0  0  0
    7.0655    1.0235    0.0000 H   0  0  0  0  0  0  0  0  0  0  0  0
    6.0447    0.3117    0.0000 H   0  0  0  0  0  0  0  0  0  0  0  0
    8.7893   -0.2717    0.0000 H   0  0  0  0  0  0  0  0  0  0  0  0
    5.7079   -1.2729    0.0000 H   0  0  0  0  0  0  0  0  0  0  0  0
    8.4525   -1.8563    0.0000 H   0  0  0  0  0  0  0  0  0  0  0  0
    5.9835   -1.9142    0.0000 H   0  0  0  0  0  0  0  0  0  0  0  0
    6.0184   -3.5778    0.0000 H   0  0  0  0  0  0  0  0  0  0  0  0
    6.4960   -4.3132    0.0000 H   0  0  0  0  0  0  0  0  0  0  0  0
    7.2313   -3.8356    0.0000 H   0  0  0  0  0  0  0  0  0  0  0  0
    5.2482   -2.3918    0.0000 H   0  0  0  0  0  0  0  0  0  0  0  0
    5.7257   -3.1271    0.0000 H   0  0  0  0  0  0  0  0  0  0  0  0
    7.6820   -3.5429    0.0000 H   0  0  0  0  0  0  0  0  0  0  0  0
    8.4174   -3.0654    0.0000 H   0  0  0  0  0  0  0  0  0  0  0  0
    7.9398   -2.3300    0.0000 H   0  0  0  0  0  0  0  0  0  0  0  0
   11.1760    0.4707    0.0000 H   0  0  0  0  0  0  0  0  0  0  0  0
    9.7731    2.9008    0.0000 H   0  0  0  0  0  0  0  0  0  0  0  0
    9.9809   -0.2193    0.0000 H   0  0  0  0  0  0  0  0  0  0  0  0
   11.1760    3.7108    0.0000 H   0  0  0  0  0  0  0  0  0  0  0  0
    3.7874   -0.0389    0.0000 H   0  0  0  0  0  0  0  0  0  0  0  0
    3.4487    3.1833    0.0000 H   0  0  0  0  0  0  0  0  0  0  0  0
   14.0511    0.9862    0.0000 H   0  0  0  0  0  0  0  0  0  0  0  0
   14.4529    1.6760    0.0000 H   0  0  0  0  0  0  0  0  0  0  0  0
   14.4529    2.5055    0.0000 H   0  0  0  0  0  0  0  0  0  0  0  0
   14.0511    3.1952    0.0000 H   0  0  0  0  0  0  0  0  0  0  0  0
    2.1381    2.2311    0.0000 H   0  0  0  0  0  0  0  0  0  0  0  0
  1 38  1  0  0  0  0
  2 25  1  0  0  0  0
  2 27  1  0  0  0  0
  3 24  1  0  0  0  0
  3 56  1  0  0  0  0
  4 17  2  0  0  0  0
  5 18  2  0  0  0  0
  6 31  1  0  0  0  0
  6 36  1  0  0  0  0
  7 32  1  0  0  0  0
  7 37  1  0  0  0  0
  8 10  1  0  0  0  0
  8 18  1  0  0  0  0
  8 25  1  0  0  0  0
  9 25  2  0  0  0  0
  9 28  1  0  0  0  0
 10 12  1  0  0  0  0
 10 13  1  0  0  0  0
 10 40  1  0  0  0  0
 11 14  1  0  0  0  0
 11 21  1  0  0  0  0
 11 22  1  0  0  0  0
 11 23  1  0  0  0  0
 12 15  2  0  0  0  0
 12 16  1  0  0  0  0
 13 17  1  0  0  0  0
 13 24  2  0  0  0  0
 14 19  2  0  0  0  0
 14 20  1  0  0  0  0
 15 19  1  0  0  0  0
 15 41  1  0  0  0  0
 16 20  2  0  0  0  0
 16 42  1  0  0  0  0
 17 18  1  0  0  0  0
 19 43  1  0  0  0  0
 20 44  1  0  0  0  0
 21 46  1  0  0  0  0
 21 47  1  0  0  0  0
 21 48  1  0  0  0  0
 22 51  1  0  0  0  0
 22 52  1  0  0  0  0
 22 53  1  0  0  0  0
 23 45  1  0  0  0  0
 23 49  1  0  0  0  0
 23 50  1  0  0  0  0
 24 26  1  0  0  0  0
 26 29  2  0  0  0  0
 26 30  1  0  0  0  0
 27 28  2  0  0  0  0
 27 34  1  0  0  0  0
 28 35  1  0  0  0  0
 29 31  1  0  0  0  0
 29 54  1  0  0  0  0
 30 33  2  0  0  0  0
 30 55  1  0  0  0  0
 31 32  2  0  0  0  0
 32 33  1  0  0  0  0
 33 57  1  0  0  0  0
 34 38  2  0  0  0  0
 34 58  1  0  0  0  0
 35 39  2  0  0  0  0
 35 59  1  0  0  0  0
 36 37  1  0  0  0  0
 36 60  1  0  0  0  0
 36 61  1  0  0  0  0
 37 62  1  0  0  0  0
 37 63  1  0  0  0  0
 38 39  1  0  0  0  0
 39 64  1  0  0  0  0
M  END
> <PUBCHEM_COMPOUND_CID>
6275433

> <PUBCHEM_COMPOUND_CANONICALIZED>
1

> <PUBCHEM_CACTVS_COMPLEXITY>
992

> <PUBCHEM_CACTVS_HBOND_ACCEPTOR>
7

> <PUBCHEM_CACTVS_HBOND_DONOR>
1

> <PUBCHEM_CACTVS_ROTATABLE_BOND>
4

> <PUBCHEM_CACTVS_SUBSKEYS>
AAADceB7OABEAAAAAAAAAAAAAAAAAWLAAAA0YMEAAAAAAFiR9AAAHgYACAAADi7h3iYz17MIFgisA6VydACD+KlhLzhJmD2+7tiNJrrlu7uGeCrsxxPK+Sfc6PyP4ABBABAAQQDAAIIAIACCAAAAAAAAAA==

> <PUBCHEM_IUPAC_OPENEYE_NAME>
(4E)-5-(4-tert-butylphenyl)-1-(6-chloro-1,3-benzothiazol-2-yl)-4-[2,3-dihydro-1,4-benzodioxin-6-yl(hydroxy)methylene]pyrrolidine-2,3-dione

> <PUBCHEM_IUPAC_CAS_NAME>
(4E)-5-(4-tert-butylphenyl)-1-(6-chloro-1,3-benzothiazol-2-yl)-4-[2,3-dihydro-1,4-benzodioxin-6-yl(hydroxy)methylidene]pyrrolidine-2,3-dione

> <PUBCHEM_IUPAC_NAME>
(4E)-5-(4-tert-butylphenyl)-1-(6-chloro-1,3-benzothiazol-2-yl)-4-[2,3-dihydro-1,4-benzodioxin-6-yl(hydroxy)methylidene]pyrrolidine-2,3-dione

> <PUBCHEM_IUPAC_SYSTEMATIC_NAME>
(4E)-5-(4-tert-butylphenyl)-1-(6-chloranyl-1,3-benzothiazol-2-yl)-4-[2,3-dihydro-1,4-benzodioxin-6-yl(oxidanyl)methylidene]pyrrolidine-2,3-dione

> <PUBCHEM_IUPAC_TRADITIONAL_NAME>
(4E)-5-(4-tert-butylphenyl)-1-(6-chloro-1,3-benzothiazol-2-yl)-4-[2,3-dihydro-1,4-benzodioxin-6-yl(hydroxy)methylene]pyrrolidine-2,3-quinone

> <PUBCHEM_IUPAC_INCHI>
InChI=1S/C30H25ClN2O5S/c1-30(2,3)18-7-4-16(5-8-18)25-24(26(34)17-6-11-21-22(14-17)38-13-12-37-21)27(35)28(36)33(25)29-32-20-10-9-19(31)15-23(20)39-29/h4-11,14-15,25,34H,12-13H2,1-3H3/b26-24+

> <PUBCHEM_IUPAC_INCHIKEY>
VGKIGLIKLUXSGL-SHHOIMCASA-N

> <PUBCHEM_XLOGP3_AA>
7.3

> <PUBCHEM_EXACT_MASS>
560.117

> <PUBCHEM_MOLECULAR_FORMULA>
C30H25ClN2O5S

> <PUBCHEM_MOLECULAR_WEIGHT>
561.049

> <PUBCHEM_OPENEYE_CAN_SMILES>
CC(C)(C)C1=CC=C(C=C1)C2C(=C(C3=CC4=C(C=C3)OCCO4)O)C(=O)C(=O)N2C5=NC6=C(S5)C=C(C=C6)Cl

> <PUBCHEM_OPENEYE_ISO_SMILES>
CC(C)(C)C1=CC=C(C=C1)C2/C(=C(/C3=CC4=C(C=C3)OCCO4)\O)/C(=O)C(=O)N2C5=NC6=C(S5)C=C(C=C6)Cl

> <PUBCHEM_CACTVS_TPSA>
117

> <PUBCHEM_MONOISOTOPIC_WEIGHT>
560.117

> <PUBCHEM_TOTAL_CHARGE>
0

> <PUBCHEM_HEAVY_ATOM_COUNT>
39

> <PUBCHEM_ATOM_DEF_STEREO_COUNT>
0

> <PUBCHEM_ATOM_UDEF_STEREO_COUNT>
1

> <PUBCHEM_BOND_DEF_STEREO_COUNT>
1

> <PUBCHEM_BOND_UDEF_STEREO_COUNT>
0

> <PUBCHEM_ISOTOPIC_ATOM_COUNT>
0

> <PUBCHEM_COMPONENT_COUNT>
1

> <PUBCHEM_CACTVS_TAUTO_COUNT>
3

> <PUBCHEM_COORDINATE_TYPE>
1
5
255

> <PUBCHEM_BONDANNOTATIONS>
10  12  3
12  15  8
12  16  8
14  19  8
14  20  8
15  19  8
16  20  8
2  25  8
2  27  8
26  29  8
26  30  8
27  28  8
27  34  8
28  35  8
29  31  8
30  33  8
31  32  8
32  33  8
34  38  8
35  39  8
38  39  8
9  25  8
9  28  8

$$$$
16446616
  -OEChem-11021605012D

 70 75  0     1  0  0  0  0  0999 V2000
    6.4934    2.6603    0.0000 S   0  0  0  0  0  0  0  0  0  0  0  0
    2.9491    2.8555    0.0000 F   0  0  0  0  0  0  0  0  0  0  0  0
   11.5888   -3.0354    0.0000 O   0  0  0  0  0  0  0  0  0  0  0  0
   11.3384    1.1745    0.0000 O   0  0  0  0  0  0  0  0  0  0  0  0
   10.4248    2.9433    0.0000 O   0  0  0  0  0  0  0  0  0  0  0  0
    8.3558    3.6156    0.0000 O   0  0  0  0  0  0  0  0  0  0  0  0
    6.2022   -2.1056    0.0000 O   0  0  0  0  0  0  0  0  0  0  0  0
    8.0770    1.8555    0.0000 N   0  0  0  0  0  0  0  0  0  0  0  0
    6.4934    1.0508    0.0000 N   0  0  0  0  0  0  0  0  0  0  0  0
    8.6648    1.0465    0.0000 C   0  0  3  0  0  0  0  0  0  0  0  0
    9.6158    1.3555    0.0000 C   0  0  0  0  0  0  0  0  0  0  0  0
   12.7464   -1.9174    0.0000 C   0  0  0  0  0  0  0  0  0  0  0  0
   12.5730   -2.8963    0.0000 C   0  0  3  0  0  0  0  0  0  0  0  0
   11.8699   -1.4485    0.0000 C   0  0  0  0  0  0  0  0  0  0  0  0
    8.0491    0.2585    0.0000 C   0  0  0  0  0  0  0  0  0  0  0  0
   10.4248    0.7678    0.0000 C   0  0  0  0  0  0  0  0  0  0  0  0
   10.6668   -0.2025    0.0000 C   0  0  0  0  0  0  0  0  0  0  0  0
   11.1507   -2.1431    0.0000 C   0  0  0  0  0  0  0  0  0  0  0  0
    9.6158    2.3555    0.0000 C   0  0  0  0  0  0  0  0  0  0  0  0
    8.6648    2.6646    0.0000 C   0  0  0  0  0  0  0  0  0  0  0  0
   11.6280   -0.4782    0.0000 C   0  0  0  0  0  0  0  0  0  0  0  0
    7.0770    1.8555    0.0000 C   0  0  0  0  0  0  0  0  0  0  0  0
    9.9474   -0.8972    0.0000 C   0  0  0  0  0  0  0  0  0  0  0  0
   10.1894   -1.8675    0.0000 C   0  0  0  0  0  0  0  0  0  0  0  0
   13.2676   -3.6156    0.0000 C   0  0  0  0  0  0  0  0  0  0  0  0
    7.0588    0.3977    0.0000 C   0  0  0  0  0  0  0  0  0  0  0  0
    8.4237   -0.6687    0.0000 C   0  0  0  0  0  0  0  0  0  0  0  0
    6.4432   -0.3903    0.0000 C   0  0  0  0  0  0  0  0  0  0  0  0
    7.8080   -1.4567    0.0000 C   0  0  0  0  0  0  0  0  0  0  0  0
    6.8178   -1.3176    0.0000 C   0  0  0  0  0  0  0  0  0  0  0  0
    5.5472    2.3555    0.0000 C   0  0  0  0  0  0  0  0  0  0  0  0
    5.5472    1.3555    0.0000 C   0  0  0  0  0  0  0  0  0  0  0  0
    4.5962   -2.7544    0.0000 C   0  0  0  0  0  0  0  0  0  0  0  0
    5.2119   -1.9664    0.0000 C   0  0  0  0  0  0  0  0  0  0  0  0
    3.6059   -2.6152    0.0000 C   0  0  0  0  0  0  0  0  0  0  0  0
    4.6811    2.8555    0.0000 C   0  0  0  0  0  0  0  0  0  0  0  0
    4.6811    0.8555    0.0000 C   0  0  0  0  0  0  0  0  0  0  0  0
    2.9903   -3.4032    0.0000 C   0  0  0  0  0  0  0  0  0  0  0  0
    3.8151    2.3555    0.0000 C   0  0  0  0  0  0  0  0  0  0  0  0
    3.8151    1.3555    0.0000 C   0  0  0  0  0  0  0  0  0  0  0  0
    2.0000   -3.2640    0.0000 C   0  0  0  0  0  0  0  0  0  0  0  0
    9.0204    0.5387    0.0000 H   0  0  0  0  0  0  0  0  0  0  0  0
   13.3422   -2.0892    0.0000 H   0  0  0  0  0  0  0  0  0  0  0  0
   12.9799   -1.3431    0.0000 H   0  0  0  0  0  0  0  0  0  0  0  0
   12.3714   -3.4826    0.0000 H   0  0  0  0  0  0  0  0  0  0  0  0
   12.0740   -0.0475    0.0000 H   0  0  0  0  0  0  0  0  0  0  0  0
    9.3515   -0.7263    0.0000 H   0  0  0  0  0  0  0  0  0  0  0  0
    9.7434   -2.2982    0.0000 H   0  0  0  0  0  0  0  0  0  0  0  0
   12.8216   -4.0463    0.0000 H   0  0  0  0  0  0  0  0  0  0  0  0
   13.6983   -4.0616    0.0000 H   0  0  0  0  0  0  0  0  0  0  0  0
   13.7136   -3.1849    0.0000 H   0  0  0  0  0  0  0  0  0  0  0  0
    6.8266    0.9725    0.0000 H   0  0  0  0  0  0  0  0  0  0  0  0
    9.0377   -0.7550    0.0000 H   0  0  0  0  0  0  0  0  0  0  0  0
    5.8292   -0.3041    0.0000 H   0  0  0  0  0  0  0  0  0  0  0  0
    8.0403   -2.0315    0.0000 H   0  0  0  0  0  0  0  0  0  0  0  0
   11.8400    0.8101    0.0000 H   0  0  0  0  0  0  0  0  0  0  0  0
    4.4046   -3.3440    0.0000 H   0  0  0  0  0  0  0  0  0  0  0  0
    5.1436   -3.0455    0.0000 H   0  0  0  0  0  0  0  0  0  0  0  0
    5.4035   -1.3767    0.0000 H   0  0  0  0  0  0  0  0  0  0  0  0
    4.6645   -1.6753    0.0000 H   0  0  0  0  0  0  0  0  0  0  0  0
    3.7975   -2.0256    0.0000 H   0  0  0  0  0  0  0  0  0  0  0  0
    3.0585   -2.3241    0.0000 H   0  0  0  0  0  0  0  0  0  0  0  0
    4.6811    3.4755    0.0000 H   0  0  0  0  0  0  0  0  0  0  0  0
    4.6811    0.2355    0.0000 H   0  0  0  0  0  0  0  0  0  0  0  0
    2.7987   -3.9929    0.0000 H   0  0  0  0  0  0  0  0  0  0  0  0
    3.5377   -3.6943    0.0000 H   0  0  0  0  0  0  0  0  0  0  0  0
    3.2782    1.0455    0.0000 H   0  0  0  0  0  0  0  0  0  0  0  0
    2.0863   -2.6501    0.0000 H   0  0  0  0  0  0  0  0  0  0  0  0
    1.3860   -3.1778    0.0000 H   0  0  0  0  0  0  0  0  0  0  0  0
    1.9137   -3.8780    0.0000 H   0  0  0  0  0  0  0  0  0  0  0  0
  1 22  1  0  0  0  0
  1 31  1  0  0  0  0
  2 39  1  0  0  0  0
  3 13  1  0  0  0  0
  3 18  1  0  0  0  0
  4 16  1  0  0  0  0
  4 56  1  0  0  0  0
  5 19  2  0  0  0  0
  6 20  2  0  0  0  0
  7 30  1  0  0  0  0
  7 34  1  0  0  0  0
  8 10  1  0  0  0  0
  8 20  1  0  0  0  0
  8 22  1  0  0  0  0
  9 22  2  0  0  0  0
  9 32  1  0  0  0  0
 10 11  1  0  0  0  0
 10 15  1  0  0  0  0
 10 42  1  0  0  0  0
 11 16  2  0  0  0  0
 11 19  1  0  0  0  0
 12 13  1  0  0  0  0
 12 14  1  0  0  0  0
 12 43  1  0  0  0  0
 12 44  1  0  0  0  0
 13 25  1  0  0  0  0
 13 45  1  0  0  0  0
 14 18  2  0  0  0  0
 14 21  1  0  0  0  0
 15 26  2  0  0  0  0
 15 27  1  0  0  0  0
 16 17  1  0  0  0  0
 17 21  2  0  0  0  0
 17 23  1  0  0  0  0
 18 24  1  0  0  0  0
 19 20  1  0  0  0  0
 21 46  1  0  0  0  0
 23 24  2  0  0  0  0
 23 47  1  0  0  0  0
 24 48  1  0  0  0  0
 25 49  1  0  0  0  0
 25 50  1  0  0  0  0
 25 51  1  0  0  0  0
 26 28  1  0  0  0  0
 26 52  1  0  0  0  0
 27 29  2  0  0  0  0
 27 53  1  0  0  0  0
 28 30  2  0  0  0  0
 28 54  1  0  0  0  0
 29 30  1  0  0  0  0
 29 55  1  0  0  0  0
 31 32  2  0  0  0  0
 31 36  1  0  0  0  0
 32 37  1  0  0  0  0
 33 34  1  0  0  0  0
 33 35  1  0  0  0  0
 33 57  1  0  0  0  0
 33 58  1  0  0  0  0
 34 59  1  0  0  0  0
 34 60  1  0  0  0  0
 35 38  1  0  0  0  0
 35 61  1  0  0  0  0
 35 62  1  0  0  0  0
 36 39  2  0  0  0  0
 36 63  1  0  0  0  0
 37 40  2  0  0  0  0
 37 64  1  0  0  0  0
 38 41  1  0  0  0  0
 38 65  1  0  0  0  0
 38 66  1  0  0  0  0
 39 40  1  0  0  0  0
 40 67  1  0  0  0  0
 41 68  1  0  0  0  0
 41 69  1  0  0  0  0
 41 70  1  0  0  0  0
M  END
> <PUBCHEM_COMPOUND_CID>
16446616

> <PUBCHEM_COMPOUND_CANONICALIZED>
1

> <PUBCHEM_CACTVS_COMPLEXITY>
1000

> <PUBCHEM_CACTVS_HBOND_ACCEPTOR>
8

> <PUBCHEM_CACTVS_HBOND_DONOR>
1

> <PUBCHEM_CACTVS_ROTATABLE_BOND>
8

> <PUBCHEM_CACTVS_SUBSKEYS>
AAADceB/OQBAAAAAAAAAAAAAAAAAAWLEgAAwYMAAAAAAAFgB9AAAHwQACAAADDzh3g4z17MIFgisA6VydACD+KlhKjhJmD2+bNiMJrrkubuGeCjsxxPI+Sec+P+OIAACAAAIAQBAAAQAABACAAAAAAAAAA==

> <PUBCHEM_IUPAC_OPENEYE_NAME>
(4Z)-1-(6-fluoro-1,3-benzothiazol-2-yl)-4-[hydroxy-(2-methyl-2,3-dihydrobenzofuran-5-yl)methylene]-5-(4-pentoxyphenyl)pyrrolidine-2,3-dione

> <PUBCHEM_IUPAC_CAS_NAME>
(4Z)-1-(6-fluoro-1,3-benzothiazol-2-yl)-4-[hydroxy-(2-methyl-2,3-dihydrobenzofuran-5-yl)methylidene]-5-(4-pentoxyphenyl)pyrrolidine-2,3-dione

> <PUBCHEM_IUPAC_NAME>
(4Z)-1-(6-fluoro-1,3-benzothiazol-2-yl)-4-[hydroxy-(2-methyl-2,3-dihydro-1-benzofuran-5-yl)methylidene]-5-(4-pentoxyphenyl)pyrrolidine-2,3-dione

> <PUBCHEM_IUPAC_SYSTEMATIC_NAME>
(4Z)-1-(6-fluoranyl-1,3-benzothiazol-2-yl)-4-[(2-methyl-2,3-dihydro-1-benzofuran-5-yl)-oxidanyl-methylidene]-5-(4-pentoxyphenyl)pyrrolidine-2,3-dione

> <PUBCHEM_IUPAC_TRADITIONAL_NAME>
(4Z)-5-(4-amoxyphenyl)-1-(6-fluoro-1,3-benzothiazol-2-yl)-4-[hydroxy-(2-methylcoumaran-5-yl)methylene]pyrrolidine-2,3-quinone

> <PUBCHEM_IUPAC_INCHI>
InChI=1S/C32H29FN2O5S/c1-3-4-5-14-39-23-10-6-19(7-11-23)28-27(29(36)20-8-13-25-21(16-20)15-18(2)40-25)30(37)31(38)35(28)32-34-24-12-9-22(33)17-26(24)41-32/h6-13,16-18,28,36H,3-5,14-15H2,1-2H3/b29-27-

> <PUBCHEM_IUPAC_INCHIKEY>
FBRGRXBTUSSDGA-OHYPFYFLSA-N

> <PUBCHEM_XLOGP3_AA>
7.6

> <PUBCHEM_EXACT_MASS>
572.178

> <PUBCHEM_MOLECULAR_FORMULA>
C32H29FN2O5S

> <PUBCHEM_MOLECULAR_WEIGHT>
572.651

> <PUBCHEM_OPENEYE_CAN_SMILES>
CCCCCOC1=CC=C(C=C1)C2C(=C(C3=CC4=C(C=C3)OC(C4)C)O)C(=O)C(=O)N2C5=NC6=C(S5)C=C(C=C6)F

> <PUBCHEM_OPENEYE_ISO_SMILES>
CCCCCOC1=CC=C(C=C1)C2/C(=C(\C3=CC4=C(C=C3)OC(C4)C)/O)/C(=O)C(=O)N2C5=NC6=C(S5)C=C(C=C6)F

> <PUBCHEM_CACTVS_TPSA>
117

> <PUBCHEM_MONOISOTOPIC_WEIGHT>
572.178

> <PUBCHEM_TOTAL_CHARGE>
0

> <PUBCHEM_HEAVY_ATOM_COUNT>
41

> <PUBCHEM_ATOM_DEF_STEREO_COUNT>
0

> <PUBCHEM_ATOM_UDEF_STEREO_COUNT>
2

> <PUBCHEM_BOND_DEF_STEREO_COUNT>
1

> <PUBCHEM_BOND_UDEF_STEREO_COUNT>
0

> <PUBCHEM_ISOTOPIC_ATOM_COUNT>
0

> <PUBCHEM_COMPONENT_COUNT>
1

> <PUBCHEM_CACTVS_TAUTO_COUNT>
3

> <PUBCHEM_COORDINATE_TYPE>
1
5
255

> <PUBCHEM_BONDANNOTATIONS>
1  22  8
1  31  8
10  15  3
13  25  3
14  18  8
14  21  8
15  26  8
15  27  8
17  21  8
17  23  8
18  24  8
23  24  8
26  28  8
27  29  8
28  30  8
29  30  8
31  32  8
31  36  8
32  37  8
36  39  8
37  40  8
39  40  8
9  22  8
9  32  8

$$$$
16446617
  -OEChem-11021605012D

 70 75  0     1  0  0  0  0  0999 V2000
    5.7041    2.8738    0.0000 S   0  0  0  0  0  0  0  0  0  0  0  0
    2.1598    3.0691    0.0000 F   0  0  0  0  0  0  0  0  0  0  0  0
   10.1214   -2.9663    0.0000 O   0  0  0  0  0  0  0  0  0  0  0  0
   10.5491    1.3880    0.0000 O   0  0  0  0  0  0  0  0  0  0  0  0
    4.9377   -0.5756    0.0000 O   0  0  0  0  0  0  0  0  0  0  0  0
    9.6355    3.1568    0.0000 O   0  0  0  0  0  0  0  0  0  0  0  0
    7.5664    3.8291    0.0000 O   0  0  0  0  0  0  0  0  0  0  0  0
    7.2877    2.0691    0.0000 N   0  0  0  0  0  0  0  0  0  0  0  0
    5.7041    1.2643    0.0000 N   0  0  0  0  0  0  0  0  0  0  0  0
    7.8754    1.2600    0.0000 C   0  0  3  0  0  0  0  0  0  0  0  0
    8.8265    1.5691    0.0000 C   0  0  0  0  0  0  0  0  0  0  0  0
   11.4556   -2.0663    0.0000 C   0  0  0  0  0  0  0  0  0  0  0  0
   11.1148   -3.0001    0.0000 C   0  0  3  0  0  0  0  0  0  0  0  0
    7.4060    0.3771    0.0000 C   0  0  0  0  0  0  0  0  0  0  0  0
   10.6738   -1.4522    0.0000 C   0  0  0  0  0  0  0  0  0  0  0  0
    9.6355    0.9813    0.0000 C   0  0  0  0  0  0  0  0  0  0  0  0
    9.7054   -0.0163    0.0000 C   0  0  0  0  0  0  0  0  0  0  0  0
    8.8265    2.5691    0.0000 C   0  0  0  0  0  0  0  0  0  0  0  0
    9.8449   -2.0114    0.0000 C   0  0  0  0  0  0  0  0  0  0  0  0
    7.8754    2.8781    0.0000 C   0  0  0  0  0  0  0  0  0  0  0  0
   10.6041   -0.4547    0.0000 C   0  0  0  0  0  0  0  0  0  0  0  0
    6.2877    2.0691    0.0000 C   0  0  0  0  0  0  0  0  0  0  0  0
    6.4066    0.3422    0.0000 C   0  0  0  0  0  0  0  0  0  0  0  0
    8.8763   -0.5755    0.0000 C   0  0  0  0  0  0  0  0  0  0  0  0
    8.9460   -1.5730    0.0000 C   0  0  0  0  0  0  0  0  0  0  0  0
   11.6740   -3.8291    0.0000 C   0  0  0  0  0  0  0  0  0  0  0  0
    7.9359   -0.4709    0.0000 C   0  0  0  0  0  0  0  0  0  0  0  0
    5.9371   -0.5408    0.0000 C   0  0  0  0  0  0  0  0  0  0  0  0
    2.9994   -2.3764    0.0000 C   0  0  0  0  0  0  0  0  0  0  0  0
    3.4689   -1.4935    0.0000 C   0  0  0  0  0  0  0  0  0  0  0  0
    7.4664   -1.3539    0.0000 C   0  0  0  0  0  0  0  0  0  0  0  0
    4.4683   -1.4586    0.0000 C   0  0  0  0  0  0  0  0  0  0  0  0
    6.4671   -1.3888    0.0000 C   0  0  0  0  0  0  0  0  0  0  0  0
    4.7578    2.5691    0.0000 C   0  0  0  0  0  0  0  0  0  0  0  0
    4.7578    1.5691    0.0000 C   0  0  0  0  0  0  0  0  0  0  0  0
    2.0000   -2.4113    0.0000 C   0  0  0  0  0  0  0  0  0  0  0  0
    3.5293   -3.2245    0.0000 C   0  0  0  0  0  0  0  0  0  0  0  0
    3.8918    3.0691    0.0000 C   0  0  0  0  0  0  0  0  0  0  0  0
    3.8918    1.0691    0.0000 C   0  0  0  0  0  0  0  0  0  0  0  0
    3.0258    2.5691    0.0000 C   0  0  0  0  0  0  0  0  0  0  0  0
    3.0258    1.5691    0.0000 C   0  0  0  0  0  0  0  0  0  0  0  0
    8.2740    0.7851    0.0000 H   0  0  0  0  0  0  0  0  0  0  0  0
   12.0124   -2.3389    0.0000 H   0  0  0  0  0  0  0  0  0  0  0  0
   11.7852   -1.5411    0.0000 H   0  0  0  0  0  0  0  0  0  0  0  0
   10.8144   -3.5425    0.0000 H   0  0  0  0  0  0  0  0  0  0  0  0
   11.1181   -0.1080    0.0000 H   0  0  0  0  0  0  0  0  0  0  0  0
    6.0780    0.8680    0.0000 H   0  0  0  0  0  0  0  0  0  0  0  0
    8.3190   -0.3037    0.0000 H   0  0  0  0  0  0  0  0  0  0  0  0
    8.4321   -1.9198    0.0000 H   0  0  0  0  0  0  0  0  0  0  0  0
   11.1600   -4.1758    0.0000 H   0  0  0  0  0  0  0  0  0  0  0  0
   12.0207   -4.3431    0.0000 H   0  0  0  0  0  0  0  0  0  0  0  0
   12.1880   -3.4824    0.0000 H   0  0  0  0  0  0  0  0  0  0  0  0
    8.5555   -0.4493    0.0000 H   0  0  0  0  0  0  0  0  0  0  0  0
    2.7083   -2.9239    0.0000 H   0  0  0  0  0  0  0  0  0  0  0  0
    3.5552   -0.8795    0.0000 H   0  0  0  0  0  0  0  0  0  0  0  0
    2.8792   -1.3019    0.0000 H   0  0  0  0  0  0  0  0  0  0  0  0
    7.7950   -1.8797    0.0000 H   0  0  0  0  0  0  0  0  0  0  0  0
    4.3820   -2.0726    0.0000 H   0  0  0  0  0  0  0  0  0  0  0  0
    5.0579   -1.6502    0.0000 H   0  0  0  0  0  0  0  0  0  0  0  0
    6.1760   -1.9363    0.0000 H   0  0  0  0  0  0  0  0  0  0  0  0
   11.0507    1.0236    0.0000 H   0  0  0  0  0  0  0  0  0  0  0  0
    1.9784   -1.7917    0.0000 H   0  0  0  0  0  0  0  0  0  0  0  0
    1.3804   -2.4330    0.0000 H   0  0  0  0  0  0  0  0  0  0  0  0
    2.0216   -3.0310    0.0000 H   0  0  0  0  0  0  0  0  0  0  0  0
    3.0036   -3.5531    0.0000 H   0  0  0  0  0  0  0  0  0  0  0  0
    3.8579   -3.7503    0.0000 H   0  0  0  0  0  0  0  0  0  0  0  0
    4.0551   -2.8960    0.0000 H   0  0  0  0  0  0  0  0  0  0  0  0
    3.8918    3.6891    0.0000 H   0  0  0  0  0  0  0  0  0  0  0  0
    3.8918    0.4491    0.0000 H   0  0  0  0  0  0  0  0  0  0  0  0
    2.4888    1.2591    0.0000 H   0  0  0  0  0  0  0  0  0  0  0  0
  1 22  1  0  0  0  0
  1 34  1  0  0  0  0
  2 40  1  0  0  0  0
  3 13  1  0  0  0  0
  3 19  1  0  0  0  0
  4 16  1  0  0  0  0
  4 61  1  0  0  0  0
  5 28  1  0  0  0  0
  5 32  1  0  0  0  0
  6 18  2  0  0  0  0
  7 20  2  0  0  0  0
  8 10  1  0  0  0  0
  8 20  1  0  0  0  0
  8 22  1  0  0  0  0
  9 22  2  0  0  0  0
  9 35  1  0  0  0  0
 10 11  1  0  0  0  0
 10 14  1  0  0  0  0
 10 42  1  0  0  0  0
 11 16  2  0  0  0  0
 11 18  1  0  0  0  0
 12 13  1  0  0  0  0
 12 15  1  0  0  0  0
 12 43  1  0  0  0  0
 12 44  1  0  0  0  0
 13 26  1  0  0  0  0
 13 45  1  0  0  0  0
 14 23  2  0  0  0  0
 14 27  1  0  0  0  0
 15 19  2  0  0  0  0
 15 21  1  0  0  0  0
 16 17  1  0  0  0  0
 17 21  2  0  0  0  0
 17 24  1  0  0  0  0
 18 20  1  0  0  0  0
 19 25  1  0  0  0  0
 21 46  1  0  0  0  0
 23 28  1  0  0  0  0
 23 47  1  0  0  0  0
 24 25  2  0  0  0  0
 24 48  1  0  0  0  0
 25 49  1  0  0  0  0
 26 50  1  0  0  0  0
 26 51  1  0  0  0  0
 26 52  1  0  0  0  0
 27 31  2  0  0  0  0
 27 53  1  0  0  0  0
 28 33  2  0  0  0  0
 29 30  1  0  0  0  0
 29 36  1  0  0  0  0
 29 37  1  0  0  0  0
 29 54  1  0  0  0  0
 30 32  1  0  0  0  0
 30 55  1  0  0  0  0
 30 56  1  0  0  0  0
 31 33  1  0  0  0  0
 31 57  1  0  0  0  0
 32 58  1  0  0  0  0
 32 59  1  0  0  0  0
 33 60  1  0  0  0  0
 34 35  2  0  0  0  0
 34 38  1  0  0  0  0
 35 39  1  0  0  0  0
 36 62  1  0  0  0  0
 36 63  1  0  0  0  0
 36 64  1  0  0  0  0
 37 65  1  0  0  0  0
 37 66  1  0  0  0  0
 37 67  1  0  0  0  0
 38 40  2  0  0  0  0
 38 68  1  0  0  0  0
 39 41  2  0  0  0  0
 39 69  1  0  0  0  0
 40 41  1  0  0  0  0
 41 70  1  0  0  0  0
M  END
> <PUBCHEM_COMPOUND_CID>
16446617

> <PUBCHEM_COMPOUND_CANONICALIZED>
1

> <PUBCHEM_CACTVS_COMPLEXITY>
1020

> <PUBCHEM_CACTVS_HBOND_ACCEPTOR>
8

> <PUBCHEM_CACTVS_HBOND_DONOR>
1

> <PUBCHEM_CACTVS_ROTATABLE_BOND>
7

> <PUBCHEM_CACTVS_SUBSKEYS>
AAADceB/OQBAAAAAAAAAAAAAAAAAAWLEgAAwYMAAAAAAAFgB9AAAHwQACAAADTzh3g4z17MIFgisA6VydACD+KlhKjhJmD2+bNiMJrrkubuGeCjsxxPI+Se86PyOIAADAAAIAQBAAAYAABACAAAAAAAAAA==

> <PUBCHEM_IUPAC_OPENEYE_NAME>
(4Z)-1-(6-fluoro-1,3-benzothiazol-2-yl)-4-[hydroxy-(2-methyl-2,3-dihydrobenzofuran-5-yl)methylene]-5-(3-isopentyloxyphenyl)pyrrolidine-2,3-dione

> <PUBCHEM_IUPAC_CAS_NAME>
(4Z)-1-(6-fluoro-1,3-benzothiazol-2-yl)-4-[hydroxy-(2-methyl-2,3-dihydrobenzofuran-5-yl)methylidene]-5-[3-(3-methylbutoxy)phenyl]pyrrolidine-2,3-dione

> <PUBCHEM_IUPAC_NAME>
(4Z)-1-(6-fluoro-1,3-benzothiazol-2-yl)-4-[hydroxy-(2-methyl-2,3-dihydro-1-benzofuran-5-yl)methylidene]-5-[3-(3-methylbutoxy)phenyl]pyrrolidine-2,3-dione

> <PUBCHEM_IUPAC_SYSTEMATIC_NAME>
(4Z)-1-(6-fluoranyl-1,3-benzothiazol-2-yl)-5-[3-(3-methylbutoxy)phenyl]-4-[(2-methyl-2,3-dihydro-1-benzofuran-5-yl)-oxidanyl-methylidene]pyrrolidine-2,3-dione

> <PUBCHEM_IUPAC_TRADITIONAL_NAME>
(4Z)-1-(6-fluoro-1,3-benzothiazol-2-yl)-4-[hydroxy-(2-methylcoumaran-5-yl)methylene]-5-(3-isoamoxyphenyl)pyrrolidine-2,3-quinone

> <PUBCHEM_IUPAC_INCHI>
InChI=1S/C32H29FN2O5S/c1-17(2)11-12-39-23-6-4-5-19(15-23)28-27(29(36)20-7-10-25-21(14-20)13-18(3)40-25)30(37)31(38)35(28)32-34-24-9-8-22(33)16-26(24)41-32/h4-10,14-18,28,36H,11-13H2,1-3H3/b29-27-

> <PUBCHEM_IUPAC_INCHIKEY>
UALADMMSEFWDHQ-OHYPFYFLSA-N

> <PUBCHEM_XLOGP3_AA>
7.5

> <PUBCHEM_EXACT_MASS>
572.178

> <PUBCHEM_MOLECULAR_FORMULA>
C32H29FN2O5S

> <PUBCHEM_MOLECULAR_WEIGHT>
572.651

> <PUBCHEM_OPENEYE_CAN_SMILES>
CC1CC2=C(O1)C=CC(=C2)C(=C3C(N(C(=O)C3=O)C4=NC5=C(S4)C=C(C=C5)F)C6=CC(=CC=C6)OCCC(C)C)O

> <PUBCHEM_OPENEYE_ISO_SMILES>
CC1CC2=C(O1)C=CC(=C2)/C(=C/3\C(N(C(=O)C3=O)C4=NC5=C(S4)C=C(C=C5)F)C6=CC(=CC=C6)OCCC(C)C)/O

> <PUBCHEM_CACTVS_TPSA>
117

> <PUBCHEM_MONOISOTOPIC_WEIGHT>
572.178

> <PUBCHEM_TOTAL_CHARGE>
0

> <PUBCHEM_HEAVY_ATOM_COUNT>
41

> <PUBCHEM_ATOM_DEF_STEREO_COUNT>
0

> <PUBCHEM_ATOM_UDEF_STEREO_COUNT>
2

> <PUBCHEM_BOND_DEF_STEREO_COUNT>
1

> <PUBCHEM_BOND_UDEF_STEREO_COUNT>
0

> <PUBCHEM_ISOTOPIC_ATOM_COUNT>
0

> <PUBCHEM_COMPONENT_COUNT>
1

> <PUBCHEM_CACTVS_TAUTO_COUNT>
3

> <PUBCHEM_COORDINATE_TYPE>
1
5
255

> <PUBCHEM_BONDANNOTATIONS>
1  22  8
1  34  8
10  14  3
13  26  3
14  23  8
14  27  8
15  19  8
15  21  8
17  21  8
17  24  8
19  25  8
23  28  8
24  25  8
27  31  8
28  33  8
31  33  8
34  35  8
34  38  8
35  39  8
38  40  8
39  41  8
40  41  8
9  22  8
9  35  8

$$$$
3408837
  -OEChem-11021605012D

 43 47  0     1  0  0  0  0  0999 V2000
    5.1414   -2.1759    0.0000 Cl  0  0  0  0  0  0  0  0  0  0  0  0
    5.5443    1.7558    0.0000 S   0  0  0  0  0  0  0  0  0  0  0  0
   10.5972    1.2482    0.0000 S   0  0  0  0  0  0  0  0  0  0  0  0
    2.0000    1.9511    0.0000 F   0  0  0  0  0  0  0  0  0  0  0  0
    9.4758    2.0388    0.0000 O   0  0  0  0  0  0  0  0  0  0  0  0
    7.4067    2.7111    0.0000 O   0  0  0  0  0  0  0  0  0  0  0  0
    9.3712   -1.1312    0.0000 O   0  0  0  0  0  0  0  0  0  0  0  0
    7.1279    0.9511    0.0000 N   0  0  0  0  0  0  0  0  0  0  0  0
    5.5443    0.1463    0.0000 N   0  0  0  0  0  0  0  0  0  0  0  0
    7.7157    0.1420    0.0000 C   0  0  3  0  0  0  0  0  0  0  0  0
    8.6668    0.4511    0.0000 C   0  0  0  0  0  0  0  0  0  0  0  0
    7.4067   -0.8090    0.0000 C   0  0  0  0  0  0  0  0  0  0  0  0
    8.6668    1.4511    0.0000 C   0  0  0  0  0  0  0  0  0  0  0  0
    7.7157    1.7601    0.0000 C   0  0  0  0  0  0  0  0  0  0  0  0
    6.1279    0.9511    0.0000 C   0  0  0  0  0  0  0  0  0  0  0  0
    9.4758   -0.1367    0.0000 C   0  0  0  0  0  0  0  0  0  0  0  0
    6.4285   -1.0169    0.0000 C   0  0  0  0  0  0  0  0  0  0  0  0
    8.0758   -1.5522    0.0000 C   0  0  0  0  0  0  0  0  0  0  0  0
    4.5981    1.4511    0.0000 C   0  0  0  0  0  0  0  0  0  0  0  0
    4.5981    0.4511    0.0000 C   0  0  0  0  0  0  0  0  0  0  0  0
   10.3893    0.2700    0.0000 C   0  0  0  0  0  0  0  0  0  0  0  0
    6.1195   -1.9680    0.0000 C   0  0  0  0  0  0  0  0  0  0  0  0
    7.7668   -2.5032    0.0000 C   0  0  0  0  0  0  0  0  0  0  0  0
    6.7886   -2.7111    0.0000 C   0  0  0  0  0  0  0  0  0  0  0  0
    3.7320    1.9511    0.0000 C   0  0  0  0  0  0  0  0  0  0  0  0
    3.7320   -0.0489    0.0000 C   0  0  0  0  0  0  0  0  0  0  0  0
   11.2553   -0.2300    0.0000 C   0  0  0  0  0  0  0  0  0  0  0  0
    2.8660    1.4511    0.0000 C   0  0  0  0  0  0  0  0  0  0  0  0
    2.8660    0.4511    0.0000 C   0  0  0  0  0  0  0  0  0  0  0  0
   11.9985    0.4391    0.0000 C   0  0  0  0  0  0  0  0  0  0  0  0
   11.5917    1.3527    0.0000 C   0  0  0  0  0  0  0  0  0  0  0  0
    7.1033    0.0451    0.0000 H   0  0  0  0  0  0  0  0  0  0  0  0
    6.0137   -0.5562    0.0000 H   0  0  0  0  0  0  0  0  0  0  0  0
    8.6822   -1.4233    0.0000 H   0  0  0  0  0  0  0  0  0  0  0  0
    8.1816   -2.9640    0.0000 H   0  0  0  0  0  0  0  0  0  0  0  0
    9.4110    2.6554    0.0000 H   0  0  0  0  0  0  0  0  0  0  0  0
    6.5970   -3.3008    0.0000 H   0  0  0  0  0  0  0  0  0  0  0  0
    3.7320    2.5711    0.0000 H   0  0  0  0  0  0  0  0  0  0  0  0
    3.7320   -0.6689    0.0000 H   0  0  0  0  0  0  0  0  0  0  0  0
   11.3201   -0.8466    0.0000 H   0  0  0  0  0  0  0  0  0  0  0  0
    2.3291    0.1411    0.0000 H   0  0  0  0  0  0  0  0  0  0  0  0
   12.6049    0.3102    0.0000 H   0  0  0  0  0  0  0  0  0  0  0  0
   11.9017    1.8896    0.0000 H   0  0  0  0  0  0  0  0  0  0  0  0
  1 22  1  0  0  0  0
  2 15  1  0  0  0  0
  2 19  1  0  0  0  0
  3 21  1  0  0  0  0
  3 31  1  0  0  0  0
  4 28  1  0  0  0  0
  5 13  1  0  0  0  0
  5 36  1  0  0  0  0
  6 14  2  0  0  0  0
  7 16  2  0  0  0  0
  8 10  1  0  0  0  0
  8 14  1  0  0  0  0
  8 15  1  0  0  0  0
  9 15  2  0  0  0  0
  9 20  1  0  0  0  0
 10 11  1  0  0  0  0
 10 12  1  0  0  0  0
 10 32  1  0  0  0  0
 11 13  2  0  0  0  0
 11 16  1  0  0  0  0
 12 17  2  0  0  0  0
 12 18  1  0  0  0  0
 13 14  1  0  0  0  0
 16 21  1  0  0  0  0
 17 22  1  0  0  0  0
 17 33  1  0  0  0  0
 18 23  2  0  0  0  0
 18 34  1  0  0  0  0
 19 20  2  0  0  0  0
 19 25  1  0  0  0  0
 20 26  1  0  0  0  0
 21 27  2  0  0  0  0
 22 24  2  0  0  0  0
 23 24  1  0  0  0  0
 23 35  1  0  0  0  0
 24 37  1  0  0  0  0
 25 28  2  0  0  0  0
 25 38  1  0  0  0  0
 26 29  2  0  0  0  0
 26 39  1  0  0  0  0
 27 30  1  0  0  0  0
 27 40  1  0  0  0  0
 28 29  1  0  0  0  0
 29 41  1  0  0  0  0
 30 31  2  0  0  0  0
 30 42  1  0  0  0  0
 31 43  1  0  0  0  0
M  END
> <PUBCHEM_COMPOUND_CID>
3408837

> <PUBCHEM_COMPOUND_CANONICALIZED>
1

> <PUBCHEM_CACTVS_COMPLEXITY>
784

> <PUBCHEM_CACTVS_HBOND_ACCEPTOR>
7

> <PUBCHEM_CACTVS_HBOND_DONOR>
1

> <PUBCHEM_CACTVS_ROTATABLE_BOND>
4

> <PUBCHEM_CACTVS_SUBSKEYS>
AAADccB7MQBkAAAAAAAAAAAAAAAAAWJEAAAwYAAAAAAAAFgB/AAAHwYACAAADC7F3iyx0bMIEgisA6VydAKD8KllLzhJmD14ZtiKILrhn5GEIQhohwL4yacYiMCOAAAAIAAAAQAAAABAAAACAAAAAAAAAA==

> <PUBCHEM_IUPAC_OPENEYE_NAME>
2-(3-chlorophenyl)-1-(6-fluoro-1,3-benzothiazol-2-yl)-4-hydroxy-3-(thiophene-2-carbonyl)-2H-pyrrol-5-one

> <PUBCHEM_IUPAC_CAS_NAME>
2-(3-chlorophenyl)-1-(6-fluoro-1,3-benzothiazol-2-yl)-4-hydroxy-3-[oxo(thiophen-2-yl)methyl]-2H-pyrrol-5-one

> <PUBCHEM_IUPAC_NAME>
2-(3-chlorophenyl)-1-(6-fluoro-1,3-benzothiazol-2-yl)-4-hydroxy-3-(thiophene-2-carbonyl)-2H-pyrrol-5-one

> <PUBCHEM_IUPAC_SYSTEMATIC_NAME>
2-(3-chlorophenyl)-1-(6-fluoranyl-1,3-benzothiazol-2-yl)-4-oxidanyl-3-thiophen-2-ylcarbonyl-2H-pyrrol-5-one

> <PUBCHEM_IUPAC_TRADITIONAL_NAME>
5-(3-chlorophenyl)-1-(6-fluoro-1,3-benzothiazol-2-yl)-3-hydroxy-4-(2-thenoyl)-3-pyrrolin-2-one

> <PUBCHEM_IUPAC_INCHI>
InChI=1S/C22H12ClFN2O3S2/c23-12-4-1-3-11(9-12)18-17(19(27)15-5-2-8-30-15)20(28)21(29)26(18)22-25-14-7-6-13(24)10-16(14)31-22/h1-10,18,28H

> <PUBCHEM_IUPAC_INCHIKEY>
HRMSMAMQHMHPAZ-UHFFFAOYSA-N

> <PUBCHEM_XLOGP3_AA>
6.1

> <PUBCHEM_EXACT_MASS>
469.996

> <PUBCHEM_MOLECULAR_FORMULA>
C22H12ClFN2O3S2

> <PUBCHEM_MOLECULAR_WEIGHT>
470.917

> <PUBCHEM_OPENEYE_CAN_SMILES>
C1=CC(=CC(=C1)Cl)C2C(=C(C(=O)N2C3=NC4=C(S3)C=C(C=C4)F)O)C(=O)C5=CC=CS5

> <PUBCHEM_OPENEYE_ISO_SMILES>
C1=CC(=CC(=C1)Cl)C2C(=C(C(=O)N2C3=NC4=C(S3)C=C(C=C4)F)O)C(=O)C5=CC=CS5

> <PUBCHEM_CACTVS_TPSA>
127

> <PUBCHEM_MONOISOTOPIC_WEIGHT>
469.996

> <PUBCHEM_TOTAL_CHARGE>
0

> <PUBCHEM_HEAVY_ATOM_COUNT>
31

> <PUBCHEM_ATOM_DEF_STEREO_COUNT>
0

> <PUBCHEM_ATOM_UDEF_STEREO_COUNT>
1

> <PUBCHEM_BOND_DEF_STEREO_COUNT>
0

> <PUBCHEM_BOND_UDEF_STEREO_COUNT>
0

> <PUBCHEM_ISOTOPIC_ATOM_COUNT>
0

> <PUBCHEM_COMPONENT_COUNT>
1

> <PUBCHEM_CACTVS_TAUTO_COUNT>
3

> <PUBCHEM_COORDINATE_TYPE>
1
5
255

> <PUBCHEM_BONDANNOTATIONS>
10  12  3
12  17  8
12  18  8
17  22  8
18  23  8
19  20  8
19  25  8
2  15  8
2  19  8
20  26  8
21  27  8
22  24  8
23  24  8
25  28  8
26  29  8
27  30  8
28  29  8
3  21  8
3  31  8
30  31  8
9  15  8
9  20  8

$$$$
6275602
  -OEChem-11021605012D

 71 76  0     1  0  0  0  0  0999 V2000
    5.5045    2.4541    0.0000 S   0  0  0  0  0  0  0  0  0  0  0  0
    9.4440    1.5835    0.0000 O   0  0  0  0  0  0  0  0  0  0  0  0
    9.2166    4.7472    0.0000 O   0  0  0  0  0  0  0  0  0  0  0  0
    7.0886    5.1995    0.0000 O   0  0  0  0  0  0  0  0  0  0  0  0
    6.8328   -1.2358    0.0000 O   0  0  0  0  0  0  0  0  0  0  0  0
   12.9360    2.5489    0.0000 O   0  0  0  0  0  0  0  0  0  0  0  0
   12.9360    4.6182    0.0000 O   0  0  0  0  0  0  0  0  0  0  0  0
    6.9953    3.4199    0.0000 N   0  0  0  0  0  0  0  0  0  0  0  0
    5.3362    4.0547    0.0000 N   0  0  0  0  0  0  0  0  0  0  0  0
    7.6644    2.6768    0.0000 C   0  0  3  0  0  0  0  0  0  0  0  0
    8.5780    3.0835    0.0000 C   0  0  0  0  0  0  0  0  0  0  0  0
    7.4565    1.6986    0.0000 C   0  0  0  0  0  0  0  0  0  0  0  0
    8.4734    4.0780    0.0000 C   0  0  0  0  0  0  0  0  0  0  0  0
    7.4953    4.2860    0.0000 C   0  0  0  0  0  0  0  0  0  0  0  0
    9.4440    2.5835    0.0000 C   0  0  0  0  0  0  0  0  0  0  0  0
    6.0008    3.3154    0.0000 C   0  0  0  0  0  0  0  0  0  0  0  0
    6.5054    1.3896    0.0000 C   0  0  0  0  0  0  0  0  0  0  0  0
    8.1996    1.0295    0.0000 C   0  0  0  0  0  0  0  0  0  0  0  0
   10.3100    3.0835    0.0000 C   0  0  0  0  0  0  0  0  0  0  0  0
    6.2975    0.4115    0.0000 C   0  0  0  0  0  0  0  0  0  0  0  0
    7.9917    0.0514    0.0000 C   0  0  0  0  0  0  0  0  0  0  0  0
    7.0407   -0.2577    0.0000 C   0  0  0  0  0  0  0  0  0  0  0  0
    4.5316    2.6582    0.0000 C   0  0  0  0  0  0  0  0  0  0  0  0
    4.4271    3.6528    0.0000 C   0  0  0  0  0  0  0  0  0  0  0  0
   11.1760    2.5835    0.0000 C   0  0  0  0  0  0  0  0  0  0  0  0
   10.3100    4.0835    0.0000 C   0  0  0  0  0  0  0  0  0  0  0  0
   12.0421    3.0835    0.0000 C   0  0  0  0  0  0  0  0  0  0  0  0
    7.3680   -2.8831    0.0000 C   0  0  0  0  0  0  0  0  0  0  0  0
    7.5759   -1.9049    0.0000 C   0  0  0  0  0  0  0  0  0  0  0  0
   12.0421    4.0835    0.0000 C   0  0  0  0  0  0  0  0  0  0  0  0
    8.1112   -3.5522    0.0000 C   0  0  0  0  0  0  0  0  0  0  0  0
    3.7226    2.0704    0.0000 C   0  0  0  0  0  0  0  0  0  0  0  0
   11.1760    4.5835    0.0000 C   0  0  0  0  0  0  0  0  0  0  0  0
    3.5135    4.0595    0.0000 C   0  0  0  0  0  0  0  0  0  0  0  0
    2.8090    2.4772    0.0000 C   0  0  0  0  0  0  0  0  0  0  0  0
    7.9032   -4.5304    0.0000 C   0  0  0  0  0  0  0  0  0  0  0  0
    2.7045    3.4717    0.0000 C   0  0  0  0  0  0  0  0  0  0  0  0
   13.8421    3.0627    0.0000 C   0  0  0  0  0  0  0  0  0  0  0  0
   13.8421    4.1043    0.0000 C   0  0  0  0  0  0  0  0  0  0  0  0
    2.0000    1.8894    0.0000 C   0  0  0  0  0  0  0  0  0  0  0  0
    8.6464   -5.1995    0.0000 C   0  0  0  0  0  0  0  0  0  0  0  0
    7.0655    2.5163    0.0000 H   0  0  0  0  0  0  0  0  0  0  0  0
    6.0447    1.8045    0.0000 H   0  0  0  0  0  0  0  0  0  0  0  0
    8.7893    1.2211    0.0000 H   0  0  0  0  0  0  0  0  0  0  0  0
    5.7079    0.2199    0.0000 H   0  0  0  0  0  0  0  0  0  0  0  0
    8.4525   -0.3635    0.0000 H   0  0  0  0  0  0  0  0  0  0  0  0
   11.1760    1.9635    0.0000 H   0  0  0  0  0  0  0  0  0  0  0  0
    9.7731    4.3935    0.0000 H   0  0  0  0  0  0  0  0  0  0  0  0
    6.7932   -2.6508    0.0000 H   0  0  0  0  0  0  0  0  0  0  0  0
    7.0394   -3.4089    0.0000 H   0  0  0  0  0  0  0  0  0  0  0  0
    8.1508   -2.1372    0.0000 H   0  0  0  0  0  0  0  0  0  0  0  0
    7.9045   -1.3792    0.0000 H   0  0  0  0  0  0  0  0  0  0  0  0
    8.6860   -3.7845    0.0000 H   0  0  0  0  0  0  0  0  0  0  0  0
    8.4397   -3.0264    0.0000 H   0  0  0  0  0  0  0  0  0  0  0  0
    9.9809    1.2735    0.0000 H   0  0  0  0  0  0  0  0  0  0  0  0
    3.7874    1.4538    0.0000 H   0  0  0  0  0  0  0  0  0  0  0  0
   11.1760    5.2035    0.0000 H   0  0  0  0  0  0  0  0  0  0  0  0
    3.4487    4.6761    0.0000 H   0  0  0  0  0  0  0  0  0  0  0  0
    7.3284   -4.2981    0.0000 H   0  0  0  0  0  0  0  0  0  0  0  0
    7.5747   -5.0562    0.0000 H   0  0  0  0  0  0  0  0  0  0  0  0
    2.1381    3.7239    0.0000 H   0  0  0  0  0  0  0  0  0  0  0  0
   14.0511    2.4790    0.0000 H   0  0  0  0  0  0  0  0  0  0  0  0
   14.4529    3.1688    0.0000 H   0  0  0  0  0  0  0  0  0  0  0  0
   14.4529    3.9982    0.0000 H   0  0  0  0  0  0  0  0  0  0  0  0
   14.0511    4.6880    0.0000 H   0  0  0  0  0  0  0  0  0  0  0  0
    8.2315   -5.6602    0.0000 H   0  0  0  0  0  0  0  0  0  0  0  0
    9.1071   -5.6144    0.0000 H   0  0  0  0  0  0  0  0  0  0  0  0
    9.0612   -4.7387    0.0000 H   0  0  0  0  0  0  0  0  0  0  0  0
    1.6356    2.3910    0.0000 H   0  0  0  0  0  0  0  0  0  0  0  0
    1.4984    1.5250    0.0000 H   0  0  0  0  0  0  0  0  0  0  0  0
    2.3644    1.3878    0.0000 H   0  0  0  0  0  0  0  0  0  0  0  0
  1 16  1  0  0  0  0
  1 23  1  0  0  0  0
  2 15  1  0  0  0  0
  2 55  1  0  0  0  0
  3 13  2  0  0  0  0
  4 14  2  0  0  0  0
  5 22  1  0  0  0  0
  5 29  1  0  0  0  0
  6 27  1  0  0  0  0
  6 38  1  0  0  0  0
  7 30  1  0  0  0  0
  7 39  1  0  0  0  0
  8 10  1  0  0  0  0
  8 14  1  0  0  0  0
  8 16  1  0  0  0  0
  9 16  2  0  0  0  0
  9 24  1  0  0  0  0
 10 11  1  0  0  0  0
 10 12  1  0  0  0  0
 10 42  1  0  0  0  0
 11 13  1  0  0  0  0
 11 15  2  0  0  0  0
 12 17  2  0  0  0  0
 12 18  1  0  0  0  0
 13 14  1  0  0  0  0
 15 19  1  0  0  0  0
 17 20  1  0  0  0  0
 17 43  1  0  0  0  0
 18 21  2  0  0  0  0
 18 44  1  0  0  0  0
 19 25  2  0  0  0  0
 19 26  1  0  0  0  0
 20 22  2  0  0  0  0
 20 45  1  0  0  0  0
 21 22  1  0  0  0  0
 21 46  1  0  0  0  0
 23 24  2  0  0  0  0
 23 32  1  0  0  0  0
 24 34  1  0  0  0  0
 25 27  1  0  0  0  0
 25 47  1  0  0  0  0
 26 33  2  0  0  0  0
 26 48  1  0  0  0  0
 27 30  2  0  0  0  0
 28 29  1  0  0  0  0
 28 31  1  0  0  0  0
 28 49  1  0  0  0  0
 28 50  1  0  0  0  0
 29 51  1  0  0  0  0
 29 52  1  0  0  0  0
 30 33  1  0  0  0  0
 31 36  1  0  0  0  0
 31 53  1  0  0  0  0
 31 54  1  0  0  0  0
 32 35  2  0  0  0  0
 32 56  1  0  0  0  0
 33 57  1  0  0  0  0
 34 37  2  0  0  0  0
 34 58  1  0  0  0  0
 35 37  1  0  0  0  0
 35 40  1  0  0  0  0
 36 41  1  0  0  0  0
 36 59  1  0  0  0  0
 36 60  1  0  0  0  0
 37 61  1  0  0  0  0
 38 39  1  0  0  0  0
 38 62  1  0  0  0  0
 38 63  1  0  0  0  0
 39 64  1  0  0  0  0
 39 65  1  0  0  0  0
 40 69  1  0  0  0  0
 40 70  1  0  0  0  0
 40 71  1  0  0  0  0
 41 66  1  0  0  0  0
 41 67  1  0  0  0  0
 41 68  1  0  0  0  0
M  END
> <PUBCHEM_COMPOUND_CID>
6275602

> <PUBCHEM_COMPOUND_CANONICALIZED>
1

> <PUBCHEM_CACTVS_COMPLEXITY>
983

> <PUBCHEM_CACTVS_HBOND_ACCEPTOR>
8

> <PUBCHEM_CACTVS_HBOND_DONOR>
1

> <PUBCHEM_CACTVS_ROTATABLE_BOND>
8

> <PUBCHEM_CACTVS_SUBSKEYS>
AAADceB/OABAAAAAAAAAAAAAAAAAAWLAAAA0YMEAAAAAAFiR9AAAHgQACAAADCzh3gYz17MIFgisA6VydACD+KlhKjhJmD2+7NiNJrrkubuGeCrsxxPK+Sfc+L+OKAABgAAAQQBQAAMAAACCAAAAAAAAAA==

> <PUBCHEM_IUPAC_OPENEYE_NAME>
(4E)-4-[2,3-dihydro-1,4-benzodioxin-6-yl(hydroxy)methylene]-1-(6-methyl-1,3-benzothiazol-2-yl)-5-(4-pentoxyphenyl)pyrrolidine-2,3-dione

> <PUBCHEM_IUPAC_CAS_NAME>
(4E)-4-[2,3-dihydro-1,4-benzodioxin-6-yl(hydroxy)methylidene]-1-(6-methyl-1,3-benzothiazol-2-yl)-5-(4-pentoxyphenyl)pyrrolidine-2,3-dione

> <PUBCHEM_IUPAC_NAME>
(4E)-4-[2,3-dihydro-1,4-benzodioxin-6-yl(hydroxy)methylidene]-1-(6-methyl-1,3-benzothiazol-2-yl)-5-(4-pentoxyphenyl)pyrrolidine-2,3-dione

> <PUBCHEM_IUPAC_SYSTEMATIC_NAME>
(4E)-4-[2,3-dihydro-1,4-benzodioxin-6-yl(oxidanyl)methylidene]-1-(6-methyl-1,3-benzothiazol-2-yl)-5-(4-pentoxyphenyl)pyrrolidine-2,3-dione

> <PUBCHEM_IUPAC_TRADITIONAL_NAME>
(4E)-5-(4-amoxyphenyl)-4-[2,3-dihydro-1,4-benzodioxin-6-yl(hydroxy)methylene]-1-(6-methyl-1,3-benzothiazol-2-yl)pyrrolidine-2,3-quinone

> <PUBCHEM_IUPAC_INCHI>
InChI=1S/C32H30N2O6S/c1-3-4-5-14-38-22-10-7-20(8-11-22)28-27(29(35)21-9-13-24-25(18-21)40-16-15-39-24)30(36)31(37)34(28)32-33-23-12-6-19(2)17-26(23)41-32/h6-13,17-18,28,35H,3-5,14-16H2,1-2H3/b29-27+

> <PUBCHEM_IUPAC_INCHIKEY>
UUZQQXWUYSAPSY-ORIPQNMZSA-N

> <PUBCHEM_XLOGP3_AA>
7.1

> <PUBCHEM_EXACT_MASS>
570.182

> <PUBCHEM_MOLECULAR_FORMULA>
C32H30N2O6S

> <PUBCHEM_MOLECULAR_WEIGHT>
570.66

> <PUBCHEM_OPENEYE_CAN_SMILES>
CCCCCOC1=CC=C(C=C1)C2C(=C(C3=CC4=C(C=C3)OCCO4)O)C(=O)C(=O)N2C5=NC6=C(S5)C=C(C=C6)C

> <PUBCHEM_OPENEYE_ISO_SMILES>
CCCCCOC1=CC=C(C=C1)C2/C(=C(/C3=CC4=C(C=C3)OCCO4)\O)/C(=O)C(=O)N2C5=NC6=C(S5)C=C(C=C6)C

> <PUBCHEM_CACTVS_TPSA>
126

> <PUBCHEM_MONOISOTOPIC_WEIGHT>
570.182

> <PUBCHEM_TOTAL_CHARGE>
0

> <PUBCHEM_HEAVY_ATOM_COUNT>
41

> <PUBCHEM_ATOM_DEF_STEREO_COUNT>
0

> <PUBCHEM_ATOM_UDEF_STEREO_COUNT>
1

> <PUBCHEM_BOND_DEF_STEREO_COUNT>
1

> <PUBCHEM_BOND_UDEF_STEREO_COUNT>
0

> <PUBCHEM_ISOTOPIC_ATOM_COUNT>
0

> <PUBCHEM_COMPONENT_COUNT>
1

> <PUBCHEM_CACTVS_TAUTO_COUNT>
3

> <PUBCHEM_COORDINATE_TYPE>
1
5
255

> <PUBCHEM_BONDANNOTATIONS>
1  16  8
1  23  8
10  12  3
12  17  8
12  18  8
17  20  8
18  21  8
19  25  8
19  26  8
20  22  8
21  22  8
23  24  8
23  32  8
24  34  8
25  27  8
26  33  8
27  30  8
30  33  8
32  35  8
34  37  8
35  37  8
9  16  8
9  24  8

$$$$
118729143
  -OEChem-11021605012D

 53 57  0     1  0  0  0  0  0999 V2000
    6.9852   -2.8418    0.0000 Cl  0  0  0  0  0  0  0  0  0  0  0  0
    7.2764    1.9240    0.0000 S   0  0  0  0  0  0  0  0  0  0  0  0
    9.1387    2.8794    0.0000 O   0  0  0  0  0  0  0  0  0  0  0  0
   11.2078    2.2071    0.0000 O   0  0  0  0  0  0  0  0  0  0  0  0
   12.1214    0.4382    0.0000 O   0  0  0  0  0  0  0  0  0  0  0  0
    3.7320    2.1193    0.0000 O   0  0  0  0  0  0  0  0  0  0  0  0
    8.8600    1.1193    0.0000 N   0  0  0  0  0  0  0  0  0  0  0  0
    7.2764    0.3146    0.0000 N   0  0  0  0  0  0  0  0  0  0  0  0
    9.4477    0.3103    0.0000 C   0  0  3  0  0  0  0  0  0  0  0  0
   10.3988    0.6193    0.0000 C   0  0  0  0  0  0  0  0  0  0  0  0
    8.8321   -0.4778    0.0000 C   0  0  0  0  0  0  0  0  0  0  0  0
    9.4477    1.9283    0.0000 C   0  0  0  0  0  0  0  0  0  0  0  0
   10.3988    1.6193    0.0000 C   0  0  0  0  0  0  0  0  0  0  0  0
    7.8600    1.1193    0.0000 C   0  0  0  0  0  0  0  0  0  0  0  0
   11.2078    0.0315    0.0000 C   0  0  0  0  0  0  0  0  0  0  0  0
    7.8418   -0.3386    0.0000 C   0  0  0  0  0  0  0  0  0  0  0  0
    9.2067   -1.4049    0.0000 C   0  0  0  0  0  0  0  0  0  0  0  0
   11.4498   -0.9388    0.0000 C   0  0  0  0  0  0  0  0  0  0  0  0
    6.3301    1.6193    0.0000 C   0  0  0  0  0  0  0  0  0  0  0  0
    6.3301    0.6193    0.0000 C   0  0  0  0  0  0  0  0  0  0  0  0
    7.2262   -1.1266    0.0000 C   0  0  0  0  0  0  0  0  0  0  0  0
    8.5910   -2.1929    0.0000 C   0  0  0  0  0  0  0  0  0  0  0  0
    7.6008   -2.0538    0.0000 C   0  0  0  0  0  0  0  0  0  0  0  0
    5.4641    2.1193    0.0000 C   0  0  0  0  0  0  0  0  0  0  0  0
    5.4641    0.1193    0.0000 C   0  0  0  0  0  0  0  0  0  0  0  0
   12.4110   -1.2144    0.0000 C   0  0  0  0  0  0  0  0  0  0  0  0
   10.7304   -1.6335    0.0000 C   0  0  0  0  0  0  0  0  0  0  0  0
    4.5981    1.6193    0.0000 C   0  0  0  0  0  0  0  0  0  0  0  0
    4.5981    0.6193    0.0000 C   0  0  0  0  0  0  0  0  0  0  0  0
   12.6529   -2.1847    0.0000 C   0  0  0  0  0  0  0  0  0  0  0  0
   10.9724   -2.6037    0.0000 C   0  0  0  0  0  0  0  0  0  0  0  0
   11.9337   -2.8794    0.0000 C   0  0  0  0  0  0  0  0  0  0  0  0
    2.8660    1.6193    0.0000 C   0  0  0  0  0  0  0  0  0  0  0  0
    2.0000    2.1193    0.0000 C   0  0  0  0  0  0  0  0  0  0  0  0
    9.8034   -0.1976    0.0000 H   0  0  0  0  0  0  0  0  0  0  0  0
    7.6096    0.2363    0.0000 H   0  0  0  0  0  0  0  0  0  0  0  0
    9.8206   -1.4912    0.0000 H   0  0  0  0  0  0  0  0  0  0  0  0
    6.6122   -1.0403    0.0000 H   0  0  0  0  0  0  0  0  0  0  0  0
    8.8233   -2.7678    0.0000 H   0  0  0  0  0  0  0  0  0  0  0  0
    5.4641    2.7393    0.0000 H   0  0  0  0  0  0  0  0  0  0  0  0
    5.4641   -0.5007    0.0000 H   0  0  0  0  0  0  0  0  0  0  0  0
   12.8570   -0.7838    0.0000 H   0  0  0  0  0  0  0  0  0  0  0  0
   10.1344   -1.4626    0.0000 H   0  0  0  0  0  0  0  0  0  0  0  0
   12.6230    0.0738    0.0000 H   0  0  0  0  0  0  0  0  0  0  0  0
    4.0611    0.3093    0.0000 H   0  0  0  0  0  0  0  0  0  0  0  0
   13.2489   -2.3556    0.0000 H   0  0  0  0  0  0  0  0  0  0  0  0
   10.5264   -3.0344    0.0000 H   0  0  0  0  0  0  0  0  0  0  0  0
   12.0837   -3.4809    0.0000 H   0  0  0  0  0  0  0  0  0  0  0  0
    2.4675    1.1443    0.0000 H   0  0  0  0  0  0  0  0  0  0  0  0
    3.2646    1.1443    0.0000 H   0  0  0  0  0  0  0  0  0  0  0  0
    2.3100    2.6562    0.0000 H   0  0  0  0  0  0  0  0  0  0  0  0
    1.4631    2.4293    0.0000 H   0  0  0  0  0  0  0  0  0  0  0  0
    1.6900    1.5824    0.0000 H   0  0  0  0  0  0  0  0  0  0  0  0
  1 23  1  0  0  0  0
  2 14  1  0  0  0  0
  2 19  1  0  0  0  0
  3 12  2  0  0  0  0
  4 13  2  0  0  0  0
  5 15  1  0  0  0  0
  5 44  1  0  0  0  0
  6 28  1  0  0  0  0
  6 33  1  0  0  0  0
  7  9  1  0  0  0  0
  7 12  1  0  0  0  0
  7 14  1  0  0  0  0
  8 14  2  0  0  0  0
  8 20  1  0  0  0  0
  9 10  1  0  0  0  0
  9 11  1  0  0  0  0
  9 35  1  0  0  0  0
 10 13  1  0  0  0  0
 10 15  2  0  0  0  0
 11 16  2  0  0  0  0
 11 17  1  0  0  0  0
 12 13  1  0  0  0  0
 15 18  1  0  0  0  0
 16 21  1  0  0  0  0
 16 36  1  0  0  0  0
 17 22  2  0  0  0  0
 17 37  1  0  0  0  0
 18 26  2  0  0  0  0
 18 27  1  0  0  0  0
 19 20  2  0  0  0  0
 19 24  1  0  0  0  0
 20 25  1  0  0  0  0
 21 23  2  0  0  0  0
 21 38  1  0  0  0  0
 22 23  1  0  0  0  0
 22 39  1  0  0  0  0
 24 28  2  0  0  0  0
 24 40  1  0  0  0  0
 25 29  2  0  0  0  0
 25 41  1  0  0  0  0
 26 30  1  0  0  0  0
 26 42  1  0  0  0  0
 27 31  2  0  0  0  0
 27 43  1  0  0  0  0
 28 29  1  0  0  0  0
 29 45  1  0  0  0  0
 30 32  2  0  0  0  0
 30 46  1  0  0  0  0
 31 32  1  0  0  0  0
 31 47  1  0  0  0  0
 32 48  1  0  0  0  0
 33 34  1  0  0  0  0
 33 49  1  0  0  0  0
 33 50  1  0  0  0  0
 34 51  1  0  0  0  0
 34 52  1  0  0  0  0
 34 53  1  0  0  0  0
M  END
> <PUBCHEM_COMPOUND_CID>
118729143

> <PUBCHEM_COMPOUND_CANONICALIZED>
1

> <PUBCHEM_CACTVS_COMPLEXITY>
809

> <PUBCHEM_CACTVS_HBOND_ACCEPTOR>
6

> <PUBCHEM_CACTVS_HBOND_DONOR>
1

> <PUBCHEM_CACTVS_ROTATABLE_BOND>
5

> <PUBCHEM_CACTVS_SUBSKEYS>
AAADceB7OABEAAAAAAAAAAAAAAAAAWLAAAAwYMAAAAAAAFgB9AAAHgYACAAADC7h3iYz17MIFgisA6VydACD+KlhLzhJmD2+btiMJrrlu7uGeCjsxxPI+Se8yKCOBEAABAAAAQAIgAAIAAACAAAAAAAAAA==

> <PUBCHEM_IUPAC_OPENEYE_NAME>
(4Z)-5-(4-chlorophenyl)-1-(6-ethoxy-1,3-benzothiazol-2-yl)-4-[hydroxy(phenyl)methylene]pyrrolidine-2,3-dione

> <PUBCHEM_IUPAC_CAS_NAME>
(4Z)-5-(4-chlorophenyl)-1-(6-ethoxy-1,3-benzothiazol-2-yl)-4-[hydroxy(phenyl)methylidene]pyrrolidine-2,3-dione

> <PUBCHEM_IUPAC_NAME>
(4Z)-5-(4-chlorophenyl)-1-(6-ethoxy-1,3-benzothiazol-2-yl)-4-[hydroxy(phenyl)methylidene]pyrrolidine-2,3-dione

> <PUBCHEM_IUPAC_SYSTEMATIC_NAME>
(4Z)-5-(4-chlorophenyl)-1-(6-ethoxy-1,3-benzothiazol-2-yl)-4-[oxidanyl(phenyl)methylidene]pyrrolidine-2,3-dione

> <PUBCHEM_IUPAC_TRADITIONAL_NAME>
(4Z)-5-(4-chlorophenyl)-1-(6-ethoxy-1,3-benzothiazol-2-yl)-4-[hydroxy(phenyl)methylene]pyrrolidine-2,3-quinone

> <PUBCHEM_IUPAC_INCHI>
InChI=1S/C26H19ClN2O4S/c1-2-33-18-12-13-19-20(14-18)34-26(28-19)29-22(15-8-10-17(27)11-9-15)21(24(31)25(29)32)23(30)16-6-4-3-5-7-16/h3-14,22,30H,2H2,1H3/b23-21-

> <PUBCHEM_IUPAC_INCHIKEY>
VKUXASXOVZAIPI-LNVKXUELSA-N

> <PUBCHEM_XLOGP3_AA>
6.3

> <PUBCHEM_EXACT_MASS>
490.075

> <PUBCHEM_MOLECULAR_FORMULA>
C26H19ClN2O4S

> <PUBCHEM_MOLECULAR_WEIGHT>
490.958

> <PUBCHEM_OPENEYE_CAN_SMILES>
CCOC1=CC2=C(C=C1)N=C(S2)N3C(C(=C(C4=CC=CC=C4)O)C(=O)C3=O)C5=CC=C(C=C5)Cl

> <PUBCHEM_OPENEYE_ISO_SMILES>
CCOC1=CC2=C(C=C1)N=C(S2)N3C(/C(=C(\C4=CC=CC=C4)/O)/C(=O)C3=O)C5=CC=C(C=C5)Cl

> <PUBCHEM_CACTVS_TPSA>
108

> <PUBCHEM_MONOISOTOPIC_WEIGHT>
490.075

> <PUBCHEM_TOTAL_CHARGE>
0

> <PUBCHEM_HEAVY_ATOM_COUNT>
34

> <PUBCHEM_ATOM_DEF_STEREO_COUNT>
0

> <PUBCHEM_ATOM_UDEF_STEREO_COUNT>
1

> <PUBCHEM_BOND_DEF_STEREO_COUNT>
1

> <PUBCHEM_BOND_UDEF_STEREO_COUNT>
0

> <PUBCHEM_ISOTOPIC_ATOM_COUNT>
0

> <PUBCHEM_COMPONENT_COUNT>
1

> <PUBCHEM_CACTVS_TAUTO_COUNT>
3

> <PUBCHEM_COORDINATE_TYPE>
1
5
255

> <PUBCHEM_BONDANNOTATIONS>
11  16  8
11  17  8
16  21  8
17  22  8
18  26  8
18  27  8
19  20  8
19  24  8
2  14  8
2  19  8
20  25  8
21  23  8
22  23  8
24  28  8
25  29  8
26  30  8
27  31  8
28  29  8
30  32  8
31  32  8
8  14  8
8  20  8
9  11  3

$$$$
3839807
  -OEChem-11021605012D

 47 51  0     1  0  0  0  0  0999 V2000
    7.3456   -3.1867    0.0000 Cl  0  0  0  0  0  0  0  0  0  0  0  0
    6.4103    2.2313    0.0000 S   0  0  0  0  0  0  0  0  0  0  0  0
   10.3418    2.5144    0.0000 O   0  0  0  0  0  0  0  0  0  0  0  0
    8.2727    3.1867    0.0000 O   0  0  0  0  0  0  0  0  0  0  0  0
   10.2373   -0.6557    0.0000 O   0  0  0  0  0  0  0  0  0  0  0  0
   11.4632    1.7237    0.0000 O   0  0  0  0  0  0  0  0  0  0  0  0
    2.8660    2.4266    0.0000 O   0  0  0  0  0  0  0  0  0  0  0  0
    7.9939    1.4266    0.0000 N   0  0  0  0  0  0  0  0  0  0  0  0
    6.4103    0.6219    0.0000 N   0  0  0  0  0  0  0  0  0  0  0  0
    8.5817    0.6176    0.0000 C   0  0  3  0  0  0  0  0  0  0  0  0
    9.5328    0.9266    0.0000 C   0  0  0  0  0  0  0  0  0  0  0  0
    8.2727   -0.3335    0.0000 C   0  0  0  0  0  0  0  0  0  0  0  0
    9.5328    1.9266    0.0000 C   0  0  0  0  0  0  0  0  0  0  0  0
    8.5817    2.2356    0.0000 C   0  0  0  0  0  0  0  0  0  0  0  0
    6.9939    1.4266    0.0000 C   0  0  0  0  0  0  0  0  0  0  0  0
   10.3418    0.3388    0.0000 C   0  0  0  0  0  0  0  0  0  0  0  0
    7.2946   -0.5414    0.0000 C   0  0  0  0  0  0  0  0  0  0  0  0
    8.9418   -1.0766    0.0000 C   0  0  0  0  0  0  0  0  0  0  0  0
    5.4641    1.9266    0.0000 C   0  0  0  0  0  0  0  0  0  0  0  0
    5.4641    0.9266    0.0000 C   0  0  0  0  0  0  0  0  0  0  0  0
   11.2553    0.7455    0.0000 C   0  0  0  0  0  0  0  0  0  0  0  0
    6.9855   -1.4925    0.0000 C   0  0  0  0  0  0  0  0  0  0  0  0
    8.6328   -2.0277    0.0000 C   0  0  0  0  0  0  0  0  0  0  0  0
    7.6547   -2.2356    0.0000 C   0  0  0  0  0  0  0  0  0  0  0  0
    4.5981    2.4266    0.0000 C   0  0  0  0  0  0  0  0  0  0  0  0
    4.5981    0.4266    0.0000 C   0  0  0  0  0  0  0  0  0  0  0  0
   12.1214    0.2455    0.0000 C   0  0  0  0  0  0  0  0  0  0  0  0
    3.7320    1.9266    0.0000 C   0  0  0  0  0  0  0  0  0  0  0  0
    3.7320    0.9266    0.0000 C   0  0  0  0  0  0  0  0  0  0  0  0
   12.8645    0.9147    0.0000 C   0  0  0  0  0  0  0  0  0  0  0  0
   12.4578    1.8282    0.0000 C   0  0  0  0  0  0  0  0  0  0  0  0
    2.0000    1.9266    0.0000 C   0  0  0  0  0  0  0  0  0  0  0  0
    9.0201    0.1792    0.0000 H   0  0  0  0  0  0  0  0  0  0  0  0
    6.8797   -0.0807    0.0000 H   0  0  0  0  0  0  0  0  0  0  0  0
    9.5483   -0.9477    0.0000 H   0  0  0  0  0  0  0  0  0  0  0  0
    6.3791   -1.6214    0.0000 H   0  0  0  0  0  0  0  0  0  0  0  0
    9.0477   -2.4884    0.0000 H   0  0  0  0  0  0  0  0  0  0  0  0
   10.2770    3.1310    0.0000 H   0  0  0  0  0  0  0  0  0  0  0  0
    4.5981    3.0466    0.0000 H   0  0  0  0  0  0  0  0  0  0  0  0
    4.5981   -0.1934    0.0000 H   0  0  0  0  0  0  0  0  0  0  0  0
   12.1862   -0.3711    0.0000 H   0  0  0  0  0  0  0  0  0  0  0  0
    3.1951    0.6166    0.0000 H   0  0  0  0  0  0  0  0  0  0  0  0
   13.4710    0.7858    0.0000 H   0  0  0  0  0  0  0  0  0  0  0  0
   12.7678    2.3652    0.0000 H   0  0  0  0  0  0  0  0  0  0  0  0
    1.6900    2.4635    0.0000 H   0  0  0  0  0  0  0  0  0  0  0  0
    1.4631    1.6166    0.0000 H   0  0  0  0  0  0  0  0  0  0  0  0
    2.3100    1.3896    0.0000 H   0  0  0  0  0  0  0  0  0  0  0  0
  1 24  1  0  0  0  0
  2 15  1  0  0  0  0
  2 19  1  0  0  0  0
  3 13  1  0  0  0  0
  3 38  1  0  0  0  0
  4 14  2  0  0  0  0
  5 16  2  0  0  0  0
  6 21  1  0  0  0  0
  6 31  1  0  0  0  0
  7 28  1  0  0  0  0
  7 32  1  0  0  0  0
  8 10  1  0  0  0  0
  8 14  1  0  0  0  0
  8 15  1  0  0  0  0
  9 15  2  0  0  0  0
  9 20  1  0  0  0  0
 10 11  1  0  0  0  0
 10 12  1  0  0  0  0
 10 33  1  0  0  0  0
 11 13  2  0  0  0  0
 11 16  1  0  0  0  0
 12 17  2  0  0  0  0
 12 18  1  0  0  0  0
 13 14  1  0  0  0  0
 16 21  1  0  0  0  0
 17 22  1  0  0  0  0
 17 34  1  0  0  0  0
 18 23  2  0  0  0  0
 18 35  1  0  0  0  0
 19 20  2  0  0  0  0
 19 25  1  0  0  0  0
 20 26  1  0  0  0  0
 21 27  2  0  0  0  0
 22 24  2  0  0  0  0
 22 36  1  0  0  0  0
 23 24  1  0  0  0  0
 23 37  1  0  0  0  0
 25 28  2  0  0  0  0
 25 39  1  0  0  0  0
 26 29  2  0  0  0  0
 26 40  1  0  0  0  0
 27 30  1  0  0  0  0
 27 41  1  0  0  0  0
 28 29  1  0  0  0  0
 29 42  1  0  0  0  0
 30 31  2  0  0  0  0
 30 43  1  0  0  0  0
 31 44  1  0  0  0  0
 32 45  1  0  0  0  0
 32 46  1  0  0  0  0
 32 47  1  0  0  0  0
M  END
> <PUBCHEM_COMPOUND_CID>
3839807

> <PUBCHEM_COMPOUND_CANONICALIZED>
1

> <PUBCHEM_CACTVS_COMPLEXITY>
786

> <PUBCHEM_CACTVS_HBOND_ACCEPTOR>
7

> <PUBCHEM_CACTVS_HBOND_DONOR>
1

> <PUBCHEM_CACTVS_ROTATABLE_BOND>
5

> <PUBCHEM_CACTVS_SUBSKEYS>
AAADccB7OABEAAAAAAAAAAAAAAAAAWJEAAAwYAAAAAAAAFgB/AAAHgYACAAADC7h3iYz17MIFkisA61y9AKD+KllLzhJmD1+btiOJrrlv5+GOSjsxxPY6ae8zvCuBEAABAAAAQAIgAAIAAACAAAAAAAAAA==

> <PUBCHEM_IUPAC_OPENEYE_NAME>
2-(4-chlorophenyl)-3-(furan-2-carbonyl)-4-hydroxy-1-(6-methoxy-1,3-benzothiazol-2-yl)-2H-pyrrol-5-one

> <PUBCHEM_IUPAC_CAS_NAME>
2-(4-chlorophenyl)-3-[2-furanyl(oxo)methyl]-4-hydroxy-1-(6-methoxy-1,3-benzothiazol-2-yl)-2H-pyrrol-5-one

> <PUBCHEM_IUPAC_NAME>
2-(4-chlorophenyl)-3-(furan-2-carbonyl)-4-hydroxy-1-(6-methoxy-1,3-benzothiazol-2-yl)-2H-pyrrol-5-one

> <PUBCHEM_IUPAC_SYSTEMATIC_NAME>
2-(4-chlorophenyl)-3-(furan-2-ylcarbonyl)-1-(6-methoxy-1,3-benzothiazol-2-yl)-4-oxidanyl-2H-pyrrol-5-one

> <PUBCHEM_IUPAC_TRADITIONAL_NAME>
5-(4-chlorophenyl)-4-(2-furoyl)-3-hydroxy-1-(6-methoxy-1,3-benzothiazol-2-yl)-3-pyrrolin-2-one

> <PUBCHEM_IUPAC_INCHI>
InChI=1S/C23H15ClN2O5S/c1-30-14-8-9-15-17(11-14)32-23(25-15)26-19(12-4-6-13(24)7-5-12)18(21(28)22(26)29)20(27)16-3-2-10-31-16/h2-11,19,28H,1H3

> <PUBCHEM_IUPAC_INCHIKEY>
NMXIUSGRLXTBPG-UHFFFAOYSA-N

> <PUBCHEM_XLOGP3_AA>
5.3

> <PUBCHEM_EXACT_MASS>
466.039

> <PUBCHEM_MOLECULAR_FORMULA>
C23H15ClN2O5S

> <PUBCHEM_MOLECULAR_WEIGHT>
466.892

> <PUBCHEM_OPENEYE_CAN_SMILES>
COC1=CC2=C(C=C1)N=C(S2)N3C(C(=C(C3=O)O)C(=O)C4=CC=CO4)C5=CC=C(C=C5)Cl

> <PUBCHEM_OPENEYE_ISO_SMILES>
COC1=CC2=C(C=C1)N=C(S2)N3C(C(=C(C3=O)O)C(=O)C4=CC=CO4)C5=CC=C(C=C5)Cl

> <PUBCHEM_CACTVS_TPSA>
121

> <PUBCHEM_MONOISOTOPIC_WEIGHT>
466.039

> <PUBCHEM_TOTAL_CHARGE>
0

> <PUBCHEM_HEAVY_ATOM_COUNT>
32

> <PUBCHEM_ATOM_DEF_STEREO_COUNT>
0

> <PUBCHEM_ATOM_UDEF_STEREO_COUNT>
1

> <PUBCHEM_BOND_DEF_STEREO_COUNT>
0

> <PUBCHEM_BOND_UDEF_STEREO_COUNT>
0

> <PUBCHEM_ISOTOPIC_ATOM_COUNT>
0

> <PUBCHEM_COMPONENT_COUNT>
1

> <PUBCHEM_CACTVS_TAUTO_COUNT>
3

> <PUBCHEM_COORDINATE_TYPE>
1
5
255

> <PUBCHEM_BONDANNOTATIONS>
10  12  3
12  17  8
12  18  8
17  22  8
18  23  8
19  20  8
19  25  8
2  15  8
2  19  8
20  26  8
21  27  8
22  24  8
23  24  8
25  28  8
26  29  8
27  30  8
28  29  8
30  31  8
6  21  8
6  31  8
9  15  8
9  20  8

$$$$
6197516
  -OEChem-11021605012D

 72 77  0     1  0  0  0  0  0999 V2000
    2.0000    1.5548    0.0000 Cl  0  0  0  0  0  0  0  0  0  0  0  0
    5.5045    2.1195    0.0000 S   0  0  0  0  0  0  0  0  0  0  0  0
    9.4440    1.2490    0.0000 O   0  0  0  0  0  0  0  0  0  0  0  0
    9.2166    4.4126    0.0000 O   0  0  0  0  0  0  0  0  0  0  0  0
    7.0886    4.8649    0.0000 O   0  0  0  0  0  0  0  0  0  0  0  0
    6.8328   -1.5704    0.0000 O   0  0  0  0  0  0  0  0  0  0  0  0
    5.3465   -0.2321    0.0000 O   0  0  0  0  0  0  0  0  0  0  0  0
   12.9360    2.2143    0.0000 O   0  0  0  0  0  0  0  0  0  0  0  0
   12.9360    4.2836    0.0000 O   0  0  0  0  0  0  0  0  0  0  0  0
    6.9953    3.0854    0.0000 N   0  0  0  0  0  0  0  0  0  0  0  0
    5.3362    3.7202    0.0000 N   0  0  0  0  0  0  0  0  0  0  0  0
    7.6644    2.3422    0.0000 C   0  0  3  0  0  0  0  0  0  0  0  0
    8.5780    2.7489    0.0000 C   0  0  0  0  0  0  0  0  0  0  0  0
    7.4565    1.3641    0.0000 C   0  0  0  0  0  0  0  0  0  0  0  0
    8.4734    3.7435    0.0000 C   0  0  0  0  0  0  0  0  0  0  0  0
    7.4953    3.9514    0.0000 C   0  0  0  0  0  0  0  0  0  0  0  0
    9.4440    2.2489    0.0000 C   0  0  0  0  0  0  0  0  0  0  0  0
    6.0008    2.9808    0.0000 C   0  0  0  0  0  0  0  0  0  0  0  0
    6.5054    1.0550    0.0000 C   0  0  0  0  0  0  0  0  0  0  0  0
    8.1996    0.6949    0.0000 C   0  0  0  0  0  0  0  0  0  0  0  0
   10.3100    2.7489    0.0000 C   0  0  0  0  0  0  0  0  0  0  0  0
    6.2975    0.0769    0.0000 C   0  0  0  0  0  0  0  0  0  0  0  0
    7.9917   -0.2832    0.0000 C   0  0  0  0  0  0  0  0  0  0  0  0
    7.0407   -0.5922    0.0000 C   0  0  0  0  0  0  0  0  0  0  0  0
    4.5316    2.3237    0.0000 C   0  0  0  0  0  0  0  0  0  0  0  0
    4.4271    3.3182    0.0000 C   0  0  0  0  0  0  0  0  0  0  0  0
   11.1760    2.2489    0.0000 C   0  0  0  0  0  0  0  0  0  0  0  0
   10.3100    3.7490    0.0000 C   0  0  0  0  0  0  0  0  0  0  0  0
   12.0421    2.7489    0.0000 C   0  0  0  0  0  0  0  0  0  0  0  0
   12.0421    3.7490    0.0000 C   0  0  0  0  0  0  0  0  0  0  0  0
   11.1760    4.2490    0.0000 C   0  0  0  0  0  0  0  0  0  0  0  0
    7.5759   -2.2395    0.0000 C   0  0  0  0  0  0  0  0  0  0  0  0
    7.3680   -3.2176    0.0000 C   0  0  0  0  0  0  0  0  0  0  0  0
    3.7226    1.7359    0.0000 C   0  0  0  0  0  0  0  0  0  0  0  0
    3.5135    3.7249    0.0000 C   0  0  0  0  0  0  0  0  0  0  0  0
   13.8421    2.7281    0.0000 C   0  0  0  0  0  0  0  0  0  0  0  0
   13.8421    3.7698    0.0000 C   0  0  0  0  0  0  0  0  0  0  0  0
    5.1386   -1.2103    0.0000 C   0  0  0  0  0  0  0  0  0  0  0  0
    8.1112   -3.8868    0.0000 C   0  0  0  0  0  0  0  0  0  0  0  0
    2.8090    2.1426    0.0000 C   0  0  0  0  0  0  0  0  0  0  0  0
    2.7045    3.1371    0.0000 C   0  0  0  0  0  0  0  0  0  0  0  0
    4.1875   -1.5193    0.0000 C   0  0  0  0  0  0  0  0  0  0  0  0
    7.9032   -4.8649    0.0000 C   0  0  0  0  0  0  0  0  0  0  0  0
    7.0655    2.1818    0.0000 H   0  0  0  0  0  0  0  0  0  0  0  0
    6.0447    1.4699    0.0000 H   0  0  0  0  0  0  0  0  0  0  0  0
    8.7893    0.8865    0.0000 H   0  0  0  0  0  0  0  0  0  0  0  0
    8.4525   -0.6981    0.0000 H   0  0  0  0  0  0  0  0  0  0  0  0
   11.1760    1.6289    0.0000 H   0  0  0  0  0  0  0  0  0  0  0  0
    9.7731    4.0590    0.0000 H   0  0  0  0  0  0  0  0  0  0  0  0
    9.9809    0.9390    0.0000 H   0  0  0  0  0  0  0  0  0  0  0  0
   11.1760    4.8690    0.0000 H   0  0  0  0  0  0  0  0  0  0  0  0
    8.1508   -2.4718    0.0000 H   0  0  0  0  0  0  0  0  0  0  0  0
    7.9045   -1.7137    0.0000 H   0  0  0  0  0  0  0  0  0  0  0  0
    6.7932   -2.9854    0.0000 H   0  0  0  0  0  0  0  0  0  0  0  0
    7.0394   -3.7434    0.0000 H   0  0  0  0  0  0  0  0  0  0  0  0
    3.7874    1.1193    0.0000 H   0  0  0  0  0  0  0  0  0  0  0  0
    3.4487    4.3415    0.0000 H   0  0  0  0  0  0  0  0  0  0  0  0
   14.0511    2.1444    0.0000 H   0  0  0  0  0  0  0  0  0  0  0  0
   14.4529    2.8342    0.0000 H   0  0  0  0  0  0  0  0  0  0  0  0
   14.4529    3.6637    0.0000 H   0  0  0  0  0  0  0  0  0  0  0  0
   14.0511    4.3535    0.0000 H   0  0  0  0  0  0  0  0  0  0  0  0
    5.2249   -1.8242    0.0000 H   0  0  0  0  0  0  0  0  0  0  0  0
    5.7582   -1.2319    0.0000 H   0  0  0  0  0  0  0  0  0  0  0  0
    8.6860   -4.1190    0.0000 H   0  0  0  0  0  0  0  0  0  0  0  0
    8.4397   -3.3610    0.0000 H   0  0  0  0  0  0  0  0  0  0  0  0
    2.1381    3.3893    0.0000 H   0  0  0  0  0  0  0  0  0  0  0  0
    7.2968   -4.7360    0.0000 H   0  0  0  0  0  0  0  0  0  0  0  0
    7.7743   -5.4714    0.0000 H   0  0  0  0  0  0  0  0  0  0  0  0
    8.5097   -4.9938    0.0000 H   0  0  0  0  0  0  0  0  0  0  0  0
    3.9959   -0.9296    0.0000 H   0  0  0  0  0  0  0  0  0  0  0  0
    3.5979   -1.7109    0.0000 H   0  0  0  0  0  0  0  0  0  0  0  0
    4.3791   -2.1089    0.0000 H   0  0  0  0  0  0  0  0  0  0  0  0
  1 40  1  0  0  0  0
  2 18  1  0  0  0  0
  2 25  1  0  0  0  0
  3 17  1  0  0  0  0
  3 50  1  0  0  0  0
  4 15  2  0  0  0  0
  5 16  2  0  0  0  0
  6 24  1  0  0  0  0
  6 32  1  0  0  0  0
  7 22  1  0  0  0  0
  7 38  1  0  0  0  0
  8 29  1  0  0  0  0
  8 36  1  0  0  0  0
  9 30  1  0  0  0  0
  9 37  1  0  0  0  0
 10 12  1  0  0  0  0
 10 16  1  0  0  0  0
 10 18  1  0  0  0  0
 11 18  2  0  0  0  0
 11 26  1  0  0  0  0
 12 13  1  0  0  0  0
 12 14  1  0  0  0  0
 12 44  1  0  0  0  0
 13 15  1  0  0  0  0
 13 17  2  0  0  0  0
 14 19  2  0  0  0  0
 14 20  1  0  0  0  0
 15 16  1  0  0  0  0
 17 21  1  0  0  0  0
 19 22  1  0  0  0  0
 19 45  1  0  0  0  0
 20 23  2  0  0  0  0
 20 46  1  0  0  0  0
 21 27  2  0  0  0  0
 21 28  1  0  0  0  0
 22 24  2  0  0  0  0
 23 24  1  0  0  0  0
 23 47  1  0  0  0  0
 25 26  2  0  0  0  0
 25 34  1  0  0  0  0
 26 35  1  0  0  0  0
 27 29  1  0  0  0  0
 27 48  1  0  0  0  0
 28 31  2  0  0  0  0
 28 49  1  0  0  0  0
 29 30  2  0  0  0  0
 30 31  1  0  0  0  0
 31 51  1  0  0  0  0
 32 33  1  0  0  0  0
 32 52  1  0  0  0  0
 32 53  1  0  0  0  0
 33 39  1  0  0  0  0
 33 54  1  0  0  0  0
 33 55  1  0  0  0  0
 34 40  2  0  0  0  0
 34 56  1  0  0  0  0
 35 41  2  0  0  0  0
 35 57  1  0  0  0  0
 36 37  1  0  0  0  0
 36 58  1  0  0  0  0
 36 59  1  0  0  0  0
 37 60  1  0  0  0  0
 37 61  1  0  0  0  0
 38 42  1  0  0  0  0
 38 62  1  0  0  0  0
 38 63  1  0  0  0  0
 39 43  1  0  0  0  0
 39 64  1  0  0  0  0
 39 65  1  0  0  0  0
 40 41  1  0  0  0  0
 41 66  1  0  0  0  0
 42 70  1  0  0  0  0
 42 71  1  0  0  0  0
 42 72  1  0  0  0  0
 43 67  1  0  0  0  0
 43 68  1  0  0  0  0
 43 69  1  0  0  0  0
M  END
> <PUBCHEM_COMPOUND_CID>
6197516

> <PUBCHEM_COMPOUND_CANONICALIZED>
1

> <PUBCHEM_CACTVS_COMPLEXITY>
1050

> <PUBCHEM_CACTVS_HBOND_ACCEPTOR>
9

> <PUBCHEM_CACTVS_HBOND_DONOR>
1

> <PUBCHEM_CACTVS_ROTATABLE_BOND>
9

> <PUBCHEM_CACTVS_SUBSKEYS>
AAADceB/OABEAAAAAAAAAAAAAAAAAWLAAAA0YMEAAAAAAFiR9AAAHgYACAAADC7h3iYz17MIFgisA6VydACD+KlhLzhJmD2+7tiNJrrlu7uGeCrsxxPK+Sf8+L+OIABBABAAQQBAAIIAIACCAAAAAAAAAA==

> <PUBCHEM_IUPAC_OPENEYE_NAME>
(4E)-5-(4-butoxy-3-ethoxy-phenyl)-1-(6-chloro-1,3-benzothiazol-2-yl)-4-[2,3-dihydro-1,4-benzodioxin-6-yl(hydroxy)methylene]pyrrolidine-2,3-dione

> <PUBCHEM_IUPAC_CAS_NAME>
(4E)-5-(4-butoxy-3-ethoxyphenyl)-1-(6-chloro-1,3-benzothiazol-2-yl)-4-[2,3-dihydro-1,4-benzodioxin-6-yl(hydroxy)methylidene]pyrrolidine-2,3-dione

> <PUBCHEM_IUPAC_NAME>
(4E)-5-(4-butoxy-3-ethoxyphenyl)-1-(6-chloro-1,3-benzothiazol-2-yl)-4-[2,3-dihydro-1,4-benzodioxin-6-yl(hydroxy)methylidene]pyrrolidine-2,3-dione

> <PUBCHEM_IUPAC_SYSTEMATIC_NAME>
(4E)-5-(4-butoxy-3-ethoxy-phenyl)-1-(6-chloranyl-1,3-benzothiazol-2-yl)-4-[2,3-dihydro-1,4-benzodioxin-6-yl(oxidanyl)methylidene]pyrrolidine-2,3-dione

> <PUBCHEM_IUPAC_TRADITIONAL_NAME>
(4E)-5-(4-butoxy-3-ethoxy-phenyl)-1-(6-chloro-1,3-benzothiazol-2-yl)-4-[2,3-dihydro-1,4-benzodioxin-6-yl(hydroxy)methylene]pyrrolidine-2,3-quinone

> <PUBCHEM_IUPAC_INCHI>
InChI=1S/C32H29ClN2O7S/c1-3-5-12-40-22-10-6-18(15-24(22)39-4-2)28-27(29(36)19-7-11-23-25(16-19)42-14-13-41-23)30(37)31(38)35(28)32-34-21-9-8-20(33)17-26(21)43-32/h6-11,15-17,28,36H,3-5,12-14H2,1-2H3/b29-27+

> <PUBCHEM_IUPAC_INCHIKEY>
YBRNDYDITFUYGS-ORIPQNMZSA-N

> <PUBCHEM_XLOGP3_AA>
7.2

> <PUBCHEM_EXACT_MASS>
620.138

> <PUBCHEM_MOLECULAR_FORMULA>
C32H29ClN2O7S

> <PUBCHEM_MOLECULAR_WEIGHT>
621.101

> <PUBCHEM_OPENEYE_CAN_SMILES>
CCCCOC1=C(C=C(C=C1)C2C(=C(C3=CC4=C(C=C3)OCCO4)O)C(=O)C(=O)N2C5=NC6=C(S5)C=C(C=C6)Cl)OCC

> <PUBCHEM_OPENEYE_ISO_SMILES>
CCCCOC1=C(C=C(C=C1)C2/C(=C(/C3=CC4=C(C=C3)OCCO4)\O)/C(=O)C(=O)N2C5=NC6=C(S5)C=C(C=C6)Cl)OCC

> <PUBCHEM_CACTVS_TPSA>
136

> <PUBCHEM_MONOISOTOPIC_WEIGHT>
620.138

> <PUBCHEM_TOTAL_CHARGE>
0

> <PUBCHEM_HEAVY_ATOM_COUNT>
43

> <PUBCHEM_ATOM_DEF_STEREO_COUNT>
0

> <PUBCHEM_ATOM_UDEF_STEREO_COUNT>
1

> <PUBCHEM_BOND_DEF_STEREO_COUNT>
1

> <PUBCHEM_BOND_UDEF_STEREO_COUNT>
0

> <PUBCHEM_ISOTOPIC_ATOM_COUNT>
0

> <PUBCHEM_COMPONENT_COUNT>
1

> <PUBCHEM_CACTVS_TAUTO_COUNT>
3

> <PUBCHEM_COORDINATE_TYPE>
1
5
255

> <PUBCHEM_BONDANNOTATIONS>
11  18  8
11  26  8
12  14  3
14  19  8
14  20  8
19  22  8
2  18  8
2  25  8
20  23  8
21  27  8
21  28  8
22  24  8
23  24  8
25  26  8
25  34  8
26  35  8
27  29  8
28  31  8
29  30  8
30  31  8
34  40  8
35  41  8
40  41  8

$$$$
6275597
  -OEChem-11021605012D

 68 73  0     1  0  0  0  0  0999 V2000
    5.5045    2.1195    0.0000 S   0  0  0  0  0  0  0  0  0  0  0  0
    9.4440    1.2490    0.0000 O   0  0  0  0  0  0  0  0  0  0  0  0
    9.2166    4.4126    0.0000 O   0  0  0  0  0  0  0  0  0  0  0  0
    7.0886    4.8649    0.0000 O   0  0  0  0  0  0  0  0  0  0  0  0
    6.8328   -1.5704    0.0000 O   0  0  0  0  0  0  0  0  0  0  0  0
   12.9360    2.2143    0.0000 O   0  0  0  0  0  0  0  0  0  0  0  0
   12.9360    4.2836    0.0000 O   0  0  0  0  0  0  0  0  0  0  0  0
    6.9953    3.0854    0.0000 N   0  0  0  0  0  0  0  0  0  0  0  0
    5.3362    3.7202    0.0000 N   0  0  0  0  0  0  0  0  0  0  0  0
    7.6644    2.3422    0.0000 C   0  0  3  0  0  0  0  0  0  0  0  0
    8.5780    2.7489    0.0000 C   0  0  0  0  0  0  0  0  0  0  0  0
    7.4565    1.3641    0.0000 C   0  0  0  0  0  0  0  0  0  0  0  0
    8.4734    3.7435    0.0000 C   0  0  0  0  0  0  0  0  0  0  0  0
    7.4953    3.9514    0.0000 C   0  0  0  0  0  0  0  0  0  0  0  0
    9.4440    2.2489    0.0000 C   0  0  0  0  0  0  0  0  0  0  0  0
    6.0008    2.9808    0.0000 C   0  0  0  0  0  0  0  0  0  0  0  0
    6.5054    1.0550    0.0000 C   0  0  0  0  0  0  0  0  0  0  0  0
    8.1996    0.6949    0.0000 C   0  0  0  0  0  0  0  0  0  0  0  0
   10.3100    2.7489    0.0000 C   0  0  0  0  0  0  0  0  0  0  0  0
    6.2975    0.0769    0.0000 C   0  0  0  0  0  0  0  0  0  0  0  0
    7.9917   -0.2832    0.0000 C   0  0  0  0  0  0  0  0  0  0  0  0
    4.5316    2.3237    0.0000 C   0  0  0  0  0  0  0  0  0  0  0  0
    4.4271    3.3182    0.0000 C   0  0  0  0  0  0  0  0  0  0  0  0
    7.0407   -0.5922    0.0000 C   0  0  0  0  0  0  0  0  0  0  0  0
   11.1760    2.2489    0.0000 C   0  0  0  0  0  0  0  0  0  0  0  0
   10.3100    3.7490    0.0000 C   0  0  0  0  0  0  0  0  0  0  0  0
   12.0421    2.7489    0.0000 C   0  0  0  0  0  0  0  0  0  0  0  0
   12.0421    3.7490    0.0000 C   0  0  0  0  0  0  0  0  0  0  0  0
    3.7226    1.7359    0.0000 C   0  0  0  0  0  0  0  0  0  0  0  0
   11.1760    4.2490    0.0000 C   0  0  0  0  0  0  0  0  0  0  0  0
    3.5135    3.7249    0.0000 C   0  0  0  0  0  0  0  0  0  0  0  0
    2.8090    2.1426    0.0000 C   0  0  0  0  0  0  0  0  0  0  0  0
    7.5759   -2.2395    0.0000 C   0  0  0  0  0  0  0  0  0  0  0  0
    2.7045    3.1371    0.0000 C   0  0  0  0  0  0  0  0  0  0  0  0
    7.3680   -3.2176    0.0000 C   0  0  0  0  0  0  0  0  0  0  0  0
   13.8421    2.7281    0.0000 C   0  0  0  0  0  0  0  0  0  0  0  0
   13.8421    3.7698    0.0000 C   0  0  0  0  0  0  0  0  0  0  0  0
    8.1112   -3.8868    0.0000 C   0  0  0  0  0  0  0  0  0  0  0  0
    2.0000    1.5548    0.0000 C   0  0  0  0  0  0  0  0  0  0  0  0
    7.9032   -4.8649    0.0000 C   0  0  0  0  0  0  0  0  0  0  0  0
    7.0655    2.1818    0.0000 H   0  0  0  0  0  0  0  0  0  0  0  0
    6.0447    1.4699    0.0000 H   0  0  0  0  0  0  0  0  0  0  0  0
    8.7893    0.8865    0.0000 H   0  0  0  0  0  0  0  0  0  0  0  0
    5.7079   -0.1147    0.0000 H   0  0  0  0  0  0  0  0  0  0  0  0
    8.4525   -0.6981    0.0000 H   0  0  0  0  0  0  0  0  0  0  0  0
   11.1760    1.6289    0.0000 H   0  0  0  0  0  0  0  0  0  0  0  0
    9.7731    4.0590    0.0000 H   0  0  0  0  0  0  0  0  0  0  0  0
    9.9809    0.9390    0.0000 H   0  0  0  0  0  0  0  0  0  0  0  0
    3.7874    1.1193    0.0000 H   0  0  0  0  0  0  0  0  0  0  0  0
   11.1760    4.8690    0.0000 H   0  0  0  0  0  0  0  0  0  0  0  0
    3.4487    4.3415    0.0000 H   0  0  0  0  0  0  0  0  0  0  0  0
    8.1508   -2.4718    0.0000 H   0  0  0  0  0  0  0  0  0  0  0  0
    7.9045   -1.7137    0.0000 H   0  0  0  0  0  0  0  0  0  0  0  0
    2.1381    3.3893    0.0000 H   0  0  0  0  0  0  0  0  0  0  0  0
    6.7932   -2.9854    0.0000 H   0  0  0  0  0  0  0  0  0  0  0  0
    7.0394   -3.7434    0.0000 H   0  0  0  0  0  0  0  0  0  0  0  0
   14.0511    2.1444    0.0000 H   0  0  0  0  0  0  0  0  0  0  0  0
   14.4529    2.8342    0.0000 H   0  0  0  0  0  0  0  0  0  0  0  0
   14.4529    3.6637    0.0000 H   0  0  0  0  0  0  0  0  0  0  0  0
   14.0511    4.3535    0.0000 H   0  0  0  0  0  0  0  0  0  0  0  0
    8.6860   -4.1190    0.0000 H   0  0  0  0  0  0  0  0  0  0  0  0
    8.4397   -3.3610    0.0000 H   0  0  0  0  0  0  0  0  0  0  0  0
    1.6356    2.0564    0.0000 H   0  0  0  0  0  0  0  0  0  0  0  0
    1.4984    1.1904    0.0000 H   0  0  0  0  0  0  0  0  0  0  0  0
    2.3644    1.0532    0.0000 H   0  0  0  0  0  0  0  0  0  0  0  0
    7.2968   -4.7360    0.0000 H   0  0  0  0  0  0  0  0  0  0  0  0
    7.7743   -5.4714    0.0000 H   0  0  0  0  0  0  0  0  0  0  0  0
    8.5097   -4.9938    0.0000 H   0  0  0  0  0  0  0  0  0  0  0  0
  1 16  1  0  0  0  0
  1 22  1  0  0  0  0
  2 15  1  0  0  0  0
  2 48  1  0  0  0  0
  3 13  2  0  0  0  0
  4 14  2  0  0  0  0
  5 24  1  0  0  0  0
  5 33  1  0  0  0  0
  6 27  1  0  0  0  0
  6 36  1  0  0  0  0
  7 28  1  0  0  0  0
  7 37  1  0  0  0  0
  8 10  1  0  0  0  0
  8 14  1  0  0  0  0
  8 16  1  0  0  0  0
  9 16  2  0  0  0  0
  9 23  1  0  0  0  0
 10 11  1  0  0  0  0
 10 12  1  0  0  0  0
 10 41  1  0  0  0  0
 11 13  1  0  0  0  0
 11 15  2  0  0  0  0
 12 17  2  0  0  0  0
 12 18  1  0  0  0  0
 13 14  1  0  0  0  0
 15 19  1  0  0  0  0
 17 20  1  0  0  0  0
 17 42  1  0  0  0  0
 18 21  2  0  0  0  0
 18 43  1  0  0  0  0
 19 25  2  0  0  0  0
 19 26  1  0  0  0  0
 20 24  2  0  0  0  0
 20 44  1  0  0  0  0
 21 24  1  0  0  0  0
 21 45  1  0  0  0  0
 22 23  2  0  0  0  0
 22 29  1  0  0  0  0
 23 31  1  0  0  0  0
 25 27  1  0  0  0  0
 25 46  1  0  0  0  0
 26 30  2  0  0  0  0
 26 47  1  0  0  0  0
 27 28  2  0  0  0  0
 28 30  1  0  0  0  0
 29 32  2  0  0  0  0
 29 49  1  0  0  0  0
 30 50  1  0  0  0  0
 31 34  2  0  0  0  0
 31 51  1  0  0  0  0
 32 34  1  0  0  0  0
 32 39  1  0  0  0  0
 33 35  1  0  0  0  0
 33 52  1  0  0  0  0
 33 53  1  0  0  0  0
 34 54  1  0  0  0  0
 35 38  1  0  0  0  0
 35 55  1  0  0  0  0
 35 56  1  0  0  0  0
 36 37  1  0  0  0  0
 36 57  1  0  0  0  0
 36 58  1  0  0  0  0
 37 59  1  0  0  0  0
 37 60  1  0  0  0  0
 38 40  1  0  0  0  0
 38 61  1  0  0  0  0
 38 62  1  0  0  0  0
 39 63  1  0  0  0  0
 39 64  1  0  0  0  0
 39 65  1  0  0  0  0
 40 66  1  0  0  0  0
 40 67  1  0  0  0  0
 40 68  1  0  0  0  0
M  END
> <PUBCHEM_COMPOUND_CID>
6275597

> <PUBCHEM_COMPOUND_CANONICALIZED>
1

> <PUBCHEM_CACTVS_COMPLEXITY>
968

> <PUBCHEM_CACTVS_HBOND_ACCEPTOR>
8

> <PUBCHEM_CACTVS_HBOND_DONOR>
1

> <PUBCHEM_CACTVS_ROTATABLE_BOND>
7

> <PUBCHEM_CACTVS_SUBSKEYS>
AAADceB7OABAAAAAAAAAAAAAAAAAAWLAAAA0YMEAAAAAAFiR9AAAHgQACAAADCzh3gYz17MIFgisA6VydACD+KlhKjhJmD2+7NiNJrrkubuGeCrsxxPK+Sfc+L+OKAABgAAAQQBQAAMAAACCAAAAAAAAAA==

> <PUBCHEM_IUPAC_OPENEYE_NAME>
(4E)-5-(4-butoxyphenyl)-4-[2,3-dihydro-1,4-benzodioxin-6-yl(hydroxy)methylene]-1-(6-methyl-1,3-benzothiazol-2-yl)pyrrolidine-2,3-dione

> <PUBCHEM_IUPAC_CAS_NAME>
(4E)-5-(4-butoxyphenyl)-4-[2,3-dihydro-1,4-benzodioxin-6-yl(hydroxy)methylidene]-1-(6-methyl-1,3-benzothiazol-2-yl)pyrrolidine-2,3-dione

> <PUBCHEM_IUPAC_NAME>
(4E)-5-(4-butoxyphenyl)-4-[2,3-dihydro-1,4-benzodioxin-6-yl(hydroxy)methylidene]-1-(6-methyl-1,3-benzothiazol-2-yl)pyrrolidine-2,3-dione

> <PUBCHEM_IUPAC_SYSTEMATIC_NAME>
(4E)-5-(4-butoxyphenyl)-4-[2,3-dihydro-1,4-benzodioxin-6-yl(oxidanyl)methylidene]-1-(6-methyl-1,3-benzothiazol-2-yl)pyrrolidine-2,3-dione

> <PUBCHEM_IUPAC_TRADITIONAL_NAME>
(4E)-5-(4-butoxyphenyl)-4-[2,3-dihydro-1,4-benzodioxin-6-yl(hydroxy)methylene]-1-(6-methyl-1,3-benzothiazol-2-yl)pyrrolidine-2,3-quinone

> <PUBCHEM_IUPAC_INCHI>
InChI=1S/C31H28N2O6S/c1-3-4-13-37-21-9-6-19(7-10-21)27-26(28(34)20-8-12-23-24(17-20)39-15-14-38-23)29(35)30(36)33(27)31-32-22-11-5-18(2)16-25(22)40-31/h5-12,16-17,27,34H,3-4,13-15H2,1-2H3/b28-26+

> <PUBCHEM_IUPAC_INCHIKEY>
CQNXBLHYBVAPHB-BYCLXTJYSA-N

> <PUBCHEM_XLOGP3_AA>
6.6

> <PUBCHEM_EXACT_MASS>
556.167

> <PUBCHEM_MOLECULAR_FORMULA>
C31H28N2O6S

> <PUBCHEM_MOLECULAR_WEIGHT>
556.633

> <PUBCHEM_OPENEYE_CAN_SMILES>
CCCCOC1=CC=C(C=C1)C2C(=C(C3=CC4=C(C=C3)OCCO4)O)C(=O)C(=O)N2C5=NC6=C(S5)C=C(C=C6)C

> <PUBCHEM_OPENEYE_ISO_SMILES>
CCCCOC1=CC=C(C=C1)C2/C(=C(/C3=CC4=C(C=C3)OCCO4)\O)/C(=O)C(=O)N2C5=NC6=C(S5)C=C(C=C6)C

> <PUBCHEM_CACTVS_TPSA>
126

> <PUBCHEM_MONOISOTOPIC_WEIGHT>
556.167

> <PUBCHEM_TOTAL_CHARGE>
0

> <PUBCHEM_HEAVY_ATOM_COUNT>
40

> <PUBCHEM_ATOM_DEF_STEREO_COUNT>
0

> <PUBCHEM_ATOM_UDEF_STEREO_COUNT>
1

> <PUBCHEM_BOND_DEF_STEREO_COUNT>
1

> <PUBCHEM_BOND_UDEF_STEREO_COUNT>
0

> <PUBCHEM_ISOTOPIC_ATOM_COUNT>
0

> <PUBCHEM_COMPONENT_COUNT>
1

> <PUBCHEM_CACTVS_TAUTO_COUNT>
3

> <PUBCHEM_COORDINATE_TYPE>
1
5
255

> <PUBCHEM_BONDANNOTATIONS>
1  16  8
1  22  8
10  12  3
12  17  8
12  18  8
17  20  8
18  21  8
19  25  8
19  26  8
20  24  8
21  24  8
22  23  8
22  29  8
23  31  8
25  27  8
26  30  8
27  28  8
28  30  8
29  32  8
31  34  8
32  34  8
9  16  8
9  23  8

$$$$
6157349
  -OEChem-11021605012D

 65 70  0     1  0  0  0  0  0999 V2000
    5.5045    1.6304    0.0000 S   0  0  0  0  0  0  0  0  0  0  0  0
    9.4440    0.7599    0.0000 O   0  0  0  0  0  0  0  0  0  0  0  0
    9.2166    3.9235    0.0000 O   0  0  0  0  0  0  0  0  0  0  0  0
    7.0886    4.3759    0.0000 O   0  0  0  0  0  0  0  0  0  0  0  0
    6.8328   -2.0594    0.0000 O   0  0  0  0  0  0  0  0  0  0  0  0
   12.9360    1.7252    0.0000 O   0  0  0  0  0  0  0  0  0  0  0  0
   12.9360    3.7945    0.0000 O   0  0  0  0  0  0  0  0  0  0  0  0
    6.9953    2.5963    0.0000 N   0  0  0  0  0  0  0  0  0  0  0  0
    5.3362    3.2311    0.0000 N   0  0  0  0  0  0  0  0  0  0  0  0
    7.6644    1.8531    0.0000 C   0  0  3  0  0  0  0  0  0  0  0  0
    8.5780    2.2599    0.0000 C   0  0  0  0  0  0  0  0  0  0  0  0
    7.4565    0.8750    0.0000 C   0  0  0  0  0  0  0  0  0  0  0  0
    8.4734    3.2544    0.0000 C   0  0  0  0  0  0  0  0  0  0  0  0
    7.4953    3.4623    0.0000 C   0  0  0  0  0  0  0  0  0  0  0  0
    9.4440    1.7599    0.0000 C   0  0  0  0  0  0  0  0  0  0  0  0
    6.0008    2.4918    0.0000 C   0  0  0  0  0  0  0  0  0  0  0  0
    6.5054    0.5660    0.0000 C   0  0  0  0  0  0  0  0  0  0  0  0
    8.1996    0.2059    0.0000 C   0  0  0  0  0  0  0  0  0  0  0  0
   10.3100    2.2599    0.0000 C   0  0  0  0  0  0  0  0  0  0  0  0
    4.5316    1.8346    0.0000 C   0  0  0  0  0  0  0  0  0  0  0  0
    4.4271    2.8291    0.0000 C   0  0  0  0  0  0  0  0  0  0  0  0
    6.2975   -0.4122    0.0000 C   0  0  0  0  0  0  0  0  0  0  0  0
    7.9917   -0.7723    0.0000 C   0  0  0  0  0  0  0  0  0  0  0  0
    7.0407   -1.0813    0.0000 C   0  0  0  0  0  0  0  0  0  0  0  0
   11.1760    1.7599    0.0000 C   0  0  0  0  0  0  0  0  0  0  0  0
   10.3100    3.2599    0.0000 C   0  0  0  0  0  0  0  0  0  0  0  0
   12.0421    2.2599    0.0000 C   0  0  0  0  0  0  0  0  0  0  0  0
   12.0421    3.2599    0.0000 C   0  0  0  0  0  0  0  0  0  0  0  0
    3.7226    1.2468    0.0000 C   0  0  0  0  0  0  0  0  0  0  0  0
   11.1760    3.7599    0.0000 C   0  0  0  0  0  0  0  0  0  0  0  0
    3.5135    3.2358    0.0000 C   0  0  0  0  0  0  0  0  0  0  0  0
    2.8090    1.6535    0.0000 C   0  0  0  0  0  0  0  0  0  0  0  0
    2.7045    2.6481    0.0000 C   0  0  0  0  0  0  0  0  0  0  0  0
   13.8421    2.2391    0.0000 C   0  0  0  0  0  0  0  0  0  0  0  0
   13.8421    3.2807    0.0000 C   0  0  0  0  0  0  0  0  0  0  0  0
    7.5759   -2.7286    0.0000 C   0  0  0  0  0  0  0  0  0  0  0  0
    2.0000    1.0658    0.0000 C   0  0  0  0  0  0  0  0  0  0  0  0
    7.3680   -3.7067    0.0000 C   0  0  0  0  0  0  0  0  0  0  0  0
    8.1112   -4.3759    0.0000 C   0  0  0  0  0  0  0  0  0  0  0  0
    7.0655    1.6927    0.0000 H   0  0  0  0  0  0  0  0  0  0  0  0
    6.0447    0.9808    0.0000 H   0  0  0  0  0  0  0  0  0  0  0  0
    8.7893    0.3975    0.0000 H   0  0  0  0  0  0  0  0  0  0  0  0
    5.7079   -0.6038    0.0000 H   0  0  0  0  0  0  0  0  0  0  0  0
    8.4525   -1.1871    0.0000 H   0  0  0  0  0  0  0  0  0  0  0  0
   11.1760    1.1399    0.0000 H   0  0  0  0  0  0  0  0  0  0  0  0
    9.7731    3.5699    0.0000 H   0  0  0  0  0  0  0  0  0  0  0  0
    9.9809    0.4499    0.0000 H   0  0  0  0  0  0  0  0  0  0  0  0
   11.1760    4.3799    0.0000 H   0  0  0  0  0  0  0  0  0  0  0  0
    3.7874    0.6302    0.0000 H   0  0  0  0  0  0  0  0  0  0  0  0
    3.4487    3.8524    0.0000 H   0  0  0  0  0  0  0  0  0  0  0  0
    2.1381    2.9002    0.0000 H   0  0  0  0  0  0  0  0  0  0  0  0
   14.0511    1.6554    0.0000 H   0  0  0  0  0  0  0  0  0  0  0  0
   14.4529    2.3452    0.0000 H   0  0  0  0  0  0  0  0  0  0  0  0
   14.4529    3.1746    0.0000 H   0  0  0  0  0  0  0  0  0  0  0  0
   14.0511    3.8644    0.0000 H   0  0  0  0  0  0  0  0  0  0  0  0
    8.1508   -2.9608    0.0000 H   0  0  0  0  0  0  0  0  0  0  0  0
    7.9045   -2.2028    0.0000 H   0  0  0  0  0  0  0  0  0  0  0  0
    1.6356    1.5673    0.0000 H   0  0  0  0  0  0  0  0  0  0  0  0
    1.4984    0.7013    0.0000 H   0  0  0  0  0  0  0  0  0  0  0  0
    2.3644    0.5642    0.0000 H   0  0  0  0  0  0  0  0  0  0  0  0
    6.7932   -3.4745    0.0000 H   0  0  0  0  0  0  0  0  0  0  0  0
    7.0394   -4.2325    0.0000 H   0  0  0  0  0  0  0  0  0  0  0  0
    7.6963   -4.8366    0.0000 H   0  0  0  0  0  0  0  0  0  0  0  0
    8.5719   -4.7907    0.0000 H   0  0  0  0  0  0  0  0  0  0  0  0
    8.5260   -3.9151    0.0000 H   0  0  0  0  0  0  0  0  0  0  0  0
  1 16  1  0  0  0  0
  1 20  1  0  0  0  0
  2 15  1  0  0  0  0
  2 47  1  0  0  0  0
  3 13  2  0  0  0  0
  4 14  2  0  0  0  0
  5 24  1  0  0  0  0
  5 36  1  0  0  0  0
  6 27  1  0  0  0  0
  6 34  1  0  0  0  0
  7 28  1  0  0  0  0
  7 35  1  0  0  0  0
  8 10  1  0  0  0  0
  8 14  1  0  0  0  0
  8 16  1  0  0  0  0
  9 16  2  0  0  0  0
  9 21  1  0  0  0  0
 10 11  1  0  0  0  0
 10 12  1  0  0  0  0
 10 40  1  0  0  0  0
 11 13  1  0  0  0  0
 11 15  2  0  0  0  0
 12 17  2  0  0  0  0
 12 18  1  0  0  0  0
 13 14  1  0  0  0  0
 15 19  1  0  0  0  0
 17 22  1  0  0  0  0
 17 41  1  0  0  0  0
 18 23  2  0  0  0  0
 18 42  1  0  0  0  0
 19 25  2  0  0  0  0
 19 26  1  0  0  0  0
 20 21  2  0  0  0  0
 20 29  1  0  0  0  0
 21 31  1  0  0  0  0
 22 24  2  0  0  0  0
 22 43  1  0  0  0  0
 23 24  1  0  0  0  0
 23 44  1  0  0  0  0
 25 27  1  0  0  0  0
 25 45  1  0  0  0  0
 26 30  2  0  0  0  0
 26 46  1  0  0  0  0
 27 28  2  0  0  0  0
 28 30  1  0  0  0  0
 29 32  2  0  0  0  0
 29 49  1  0  0  0  0
 30 48  1  0  0  0  0
 31 33  2  0  0  0  0
 31 50  1  0  0  0  0
 32 33  1  0  0  0  0
 32 37  1  0  0  0  0
 33 51  1  0  0  0  0
 34 35  1  0  0  0  0
 34 52  1  0  0  0  0
 34 53  1  0  0  0  0
 35 54  1  0  0  0  0
 35 55  1  0  0  0  0
 36 38  1  0  0  0  0
 36 56  1  0  0  0  0
 36 57  1  0  0  0  0
 37 58  1  0  0  0  0
 37 59  1  0  0  0  0
 37 60  1  0  0  0  0
 38 39  1  0  0  0  0
 38 61  1  0  0  0  0
 38 62  1  0  0  0  0
 39 63  1  0  0  0  0
 39 64  1  0  0  0  0
 39 65  1  0  0  0  0
M  END
> <PUBCHEM_COMPOUND_CID>
6157349

> <PUBCHEM_COMPOUND_CANONICALIZED>
1

> <PUBCHEM_CACTVS_COMPLEXITY>
952

> <PUBCHEM_CACTVS_HBOND_ACCEPTOR>
8

> <PUBCHEM_CACTVS_HBOND_DONOR>
1

> <PUBCHEM_CACTVS_ROTATABLE_BOND>
6

> <PUBCHEM_CACTVS_SUBSKEYS>
AAADceB7OABAAAAAAAAAAAAAAAAAAWLAAAA0YMEAAAAAAFiR9AAAHgQACAAADCzh3gYz17MIFgisA6VydACD+KlhKjhJmD2+7NiNJrrkubuGeCrsxxPK+Sfc+L+OKAABgAAAQQBQAAMAAACCAAAAAAAAAA==

> <PUBCHEM_IUPAC_OPENEYE_NAME>
(4E)-4-[2,3-dihydro-1,4-benzodioxin-6-yl(hydroxy)methylene]-1-(6-methyl-1,3-benzothiazol-2-yl)-5-(4-propoxyphenyl)pyrrolidine-2,3-dione

> <PUBCHEM_IUPAC_CAS_NAME>
(4E)-4-[2,3-dihydro-1,4-benzodioxin-6-yl(hydroxy)methylidene]-1-(6-methyl-1,3-benzothiazol-2-yl)-5-(4-propoxyphenyl)pyrrolidine-2,3-dione

> <PUBCHEM_IUPAC_NAME>
(4E)-4-[2,3-dihydro-1,4-benzodioxin-6-yl(hydroxy)methylidene]-1-(6-methyl-1,3-benzothiazol-2-yl)-5-(4-propoxyphenyl)pyrrolidine-2,3-dione

> <PUBCHEM_IUPAC_SYSTEMATIC_NAME>
(4E)-4-[2,3-dihydro-1,4-benzodioxin-6-yl(oxidanyl)methylidene]-1-(6-methyl-1,3-benzothiazol-2-yl)-5-(4-propoxyphenyl)pyrrolidine-2,3-dione

> <PUBCHEM_IUPAC_TRADITIONAL_NAME>
(4E)-4-[2,3-dihydro-1,4-benzodioxin-6-yl(hydroxy)methylene]-1-(6-methyl-1,3-benzothiazol-2-yl)-5-(4-propoxyphenyl)pyrrolidine-2,3-quinone

> <PUBCHEM_IUPAC_INCHI>
InChI=1S/C30H26N2O6S/c1-3-12-36-20-8-5-18(6-9-20)26-25(27(33)19-7-11-22-23(16-19)38-14-13-37-22)28(34)29(35)32(26)30-31-21-10-4-17(2)15-24(21)39-30/h4-11,15-16,26,33H,3,12-14H2,1-2H3/b27-25+

> <PUBCHEM_IUPAC_INCHIKEY>
CNSRVAOHPVOYRJ-IMVLJIQESA-N

> <PUBCHEM_XLOGP3_AA>
6.2

> <PUBCHEM_EXACT_MASS>
542.151

> <PUBCHEM_MOLECULAR_FORMULA>
C30H26N2O6S

> <PUBCHEM_MOLECULAR_WEIGHT>
542.606

> <PUBCHEM_OPENEYE_CAN_SMILES>
CCCOC1=CC=C(C=C1)C2C(=C(C3=CC4=C(C=C3)OCCO4)O)C(=O)C(=O)N2C5=NC6=C(S5)C=C(C=C6)C

> <PUBCHEM_OPENEYE_ISO_SMILES>
CCCOC1=CC=C(C=C1)C2/C(=C(/C3=CC4=C(C=C3)OCCO4)\O)/C(=O)C(=O)N2C5=NC6=C(S5)C=C(C=C6)C

> <PUBCHEM_CACTVS_TPSA>
126

> <PUBCHEM_MONOISOTOPIC_WEIGHT>
542.151

> <PUBCHEM_TOTAL_CHARGE>
0

> <PUBCHEM_HEAVY_ATOM_COUNT>
39

> <PUBCHEM_ATOM_DEF_STEREO_COUNT>
0

> <PUBCHEM_ATOM_UDEF_STEREO_COUNT>
1

> <PUBCHEM_BOND_DEF_STEREO_COUNT>
1

> <PUBCHEM_BOND_UDEF_STEREO_COUNT>
0

> <PUBCHEM_ISOTOPIC_ATOM_COUNT>
0

> <PUBCHEM_COMPONENT_COUNT>
1

> <PUBCHEM_CACTVS_TAUTO_COUNT>
3

> <PUBCHEM_COORDINATE_TYPE>
1
5
255

> <PUBCHEM_BONDANNOTATIONS>
1  16  8
1  20  8
10  12  3
12  17  8
12  18  8
17  22  8
18  23  8
19  25  8
19  26  8
20  21  8
20  29  8
21  31  8
22  24  8
23  24  8
25  27  8
26  30  8
27  28  8
28  30  8
29  32  8
31  33  8
32  33  8
9  16  8
9  21  8

$$$$
71568837
  -OEChem-11021605012D

 41 44  0     1  0  0  0  0  0999 V2000
    4.3958   -3.6033    0.0000 S   0  0  0  0  0  0  0  0  0  0  0  0
    4.8958   -4.4693    0.0000 O   0  0  0  0  0  0  0  0  0  0  0  0
    3.8958   -4.4693    0.0000 O   0  0  0  0  0  0  0  0  0  0  0  0
    5.2619   -3.1033    0.0000 N   0  0  3  0  0  0  0  0  0  0  0  0
    2.5836   -1.7985    0.0000 N   0  0  0  0  0  0  0  0  0  0  0  0
    2.0000   -2.6033    0.0000 N   0  0  0  0  0  0  0  0  0  0  0  0
    4.3958   -1.6033    0.0000 C   0  0  0  0  0  0  0  0  0  0  0  0
    5.2619   -2.1033    0.0000 C   0  0  0  0  0  0  0  0  0  0  0  0
    3.5298   -2.1033    0.0000 C   0  0  0  0  0  0  0  0  0  0  0  0
    3.5298   -3.1033    0.0000 C   0  0  0  0  0  0  0  0  0  0  0  0
    4.3798   -0.5618    0.0000 C   0  0  0  0  0  0  0  0  0  0  0  0
    5.2778   -0.0340    0.0000 C   0  0  0  0  0  0  0  0  0  0  0  0
    6.1719   -1.5964    0.0000 C   0  0  0  0  0  0  0  0  0  0  0  0
    6.1279   -3.6033    0.0000 C   0  0  0  0  0  0  0  0  0  0  0  0
    6.1799   -0.5548    0.0000 C   0  0  0  0  0  0  0  0  0  0  0  0
    2.5836   -3.4080    0.0000 C   0  0  0  0  0  0  0  0  0  0  0  0
    5.2740    0.9660    0.0000 C   0  0  0  0  0  0  0  0  0  0  0  0
    4.4060    1.4626    0.0000 C   0  0  0  0  0  0  0  0  0  0  0  0
    6.1381    1.4693    0.0000 C   0  0  0  0  0  0  0  0  0  0  0  0
    5.2663    2.9660    0.0000 C   0  0  0  0  0  0  0  0  0  0  0  0
    4.4022    2.4626    0.0000 C   0  0  0  0  0  0  0  0  0  0  0  0
    6.1342    2.4693    0.0000 C   0  0  0  0  0  0  0  0  0  0  0  0
    5.2624    3.9660    0.0000 C   0  0  0  0  0  0  0  0  0  0  0  0
    6.1265    4.4693    0.0000 C   0  0  0  0  0  0  0  0  0  0  0  0
    3.8393   -0.2580    0.0000 H   0  0  0  0  0  0  0  0  0  0  0  0
    6.7052   -1.9126    0.0000 H   0  0  0  0  0  0  0  0  0  0  0  0
    5.8179   -4.1402    0.0000 H   0  0  0  0  0  0  0  0  0  0  0  0
    6.6648   -3.9133    0.0000 H   0  0  0  0  0  0  0  0  0  0  0  0
    6.4379   -3.0663    0.0000 H   0  0  0  0  0  0  0  0  0  0  0  0
    6.7180   -0.2469    0.0000 H   0  0  0  0  0  0  0  0  0  0  0  0
    2.3910   -1.2092    0.0000 H   0  0  0  0  0  0  0  0  0  0  0  0
    2.3910   -3.9973    0.0000 H   0  0  0  0  0  0  0  0  0  0  0  0
    3.8703    1.1506    0.0000 H   0  0  0  0  0  0  0  0  0  0  0  0
    6.6762    1.1614    0.0000 H   0  0  0  0  0  0  0  0  0  0  0  0
    3.8640    2.7706    0.0000 H   0  0  0  0  0  0  0  0  0  0  0  0
    6.6700    2.7814    0.0000 H   0  0  0  0  0  0  0  0  0  0  0  0
    5.0481    4.5478    0.0000 H   0  0  0  0  0  0  0  0  0  0  0  0
    4.6523    3.8560    0.0000 H   0  0  0  0  0  0  0  0  0  0  0  0
    6.4386    3.9336    0.0000 H   0  0  0  0  0  0  0  0  0  0  0  0
    6.6622    4.7814    0.0000 H   0  0  0  0  0  0  0  0  0  0  0  0
    5.8144    5.0050    0.0000 H   0  0  0  0  0  0  0  0  0  0  0  0
  1  2  2  0  0  0  0
  1  3  2  0  0  0  0
  1  4  1  0  0  0  0
  1 10  1  0  0  0  0
  4  8  1  0  0  0  0
  4 14  1  0  0  0  0
  5  6  1  0  0  0  0
  5  9  1  0  0  0  0
  5 31  1  0  0  0  0
  6 16  2  0  0  0  0
  7  8  2  0  0  0  0
  7  9  1  0  0  0  0
  7 11  1  0  0  0  0
  8 13  1  0  0  0  0
  9 10  2  0  0  0  0
 10 16  1  0  0  0  0
 11 12  2  0  0  0  0
 11 25  1  0  0  0  0
 12 15  1  0  0  0  0
 12 17  1  0  0  0  0
 13 15  2  0  0  0  0
 13 26  1  0  0  0  0
 14 27  1  0  0  0  0
 14 28  1  0  0  0  0
 14 29  1  0  0  0  0
 15 30  1  0  0  0  0
 16 32  1  0  0  0  0
 17 18  2  0  0  0  0
 17 19  1  0  0  0  0
 18 21  1  0  0  0  0
 18 33  1  0  0  0  0
 19 22  2  0  0  0  0
 19 34  1  0  0  0  0
 20 21  2  0  0  0  0
 20 22  1  0  0  0  0
 20 23  1  0  0  0  0
 21 35  1  0  0  0  0
 22 36  1  0  0  0  0
 23 24  1  0  0  0  0
 23 37  1  0  0  0  0
 23 38  1  0  0  0  0
 24 39  1  0  0  0  0
 24 40  1  0  0  0  0
 24 41  1  0  0  0  0
M  END
> <PUBCHEM_COMPOUND_CID>
71568837

> <PUBCHEM_COMPOUND_CANONICALIZED>
1

> <PUBCHEM_CACTVS_COMPLEXITY>
553

> <PUBCHEM_CACTVS_HBOND_ACCEPTOR>
4

> <PUBCHEM_CACTVS_HBOND_DONOR>
1

> <PUBCHEM_CACTVS_ROTATABLE_BOND>
2

> <PUBCHEM_CACTVS_SUBSKEYS>
AAADceB7MABAAAAAAAAAAAAAAAAAAWAAAAA8YIAAAAAAAFix0AAAHAQYQAAADAjBXgQ+wZJjAAKiAzRnQHDSBBAhggAYuTwoZJgIIKLA0dGEpAhgiABIyAcQgMAOyAACAAACAACQAAQAAAQAAAAAAAAAAA==

> <PUBCHEM_IUPAC_OPENEYE_NAME>
8-(4-ethylphenyl)-5-methyl-1H-pyrazolo[4,3-c][2,1]benzothiazine 4,4-dioxide

> <PUBCHEM_IUPAC_CAS_NAME>
8-(4-ethylphenyl)-5-methyl-1H-pyrazolo[4,3-c][2,1]benzothiazine 4,4-dioxide

> <PUBCHEM_IUPAC_NAME>
8-(4-ethylphenyl)-5-methyl-1H-pyrazolo[4,3-c][2,1]benzothiazine 4,4-dioxide

> <PUBCHEM_IUPAC_SYSTEMATIC_NAME>
8-(4-ethylphenyl)-5-methyl-1H-pyrazolo[4,3-c][2,1]benzothiazine 4,4-dioxide

> <PUBCHEM_IUPAC_TRADITIONAL_NAME>
8-(4-ethylphenyl)-5-methyl-1H-pyrazolo[4,3-c][2,1]benzothiazine 4,4-dioxide

> <PUBCHEM_IUPAC_INCHI>
InChI=1S/C18H17N3O2S/c1-3-12-4-6-13(7-5-12)14-8-9-16-15(10-14)18-17(11-19-20-18)24(22,23)21(16)2/h4-11H,3H2,1-2H3,(H,19,20)

> <PUBCHEM_IUPAC_INCHIKEY>
ISXAVIPPPMJTPN-UHFFFAOYSA-N

> <PUBCHEM_XLOGP3_AA>
3.1

> <PUBCHEM_EXACT_MASS>
339.104

> <PUBCHEM_MOLECULAR_FORMULA>
C18H17N3O2S

> <PUBCHEM_MOLECULAR_WEIGHT>
339.413

> <PUBCHEM_OPENEYE_CAN_SMILES>
CCC1=CC=C(C=C1)C2=CC3=C(C=C2)N(S(=O)(=O)C4=C3NN=C4)C

> <PUBCHEM_OPENEYE_ISO_SMILES>
CCC1=CC=C(C=C1)C2=CC3=C(C=C2)N(S(=O)(=O)C4=C3NN=C4)C

> <PUBCHEM_CACTVS_TPSA>
74.4

> <PUBCHEM_MONOISOTOPIC_WEIGHT>
339.104

> <PUBCHEM_TOTAL_CHARGE>
0

> <PUBCHEM_HEAVY_ATOM_COUNT>
24

> <PUBCHEM_ATOM_DEF_STEREO_COUNT>
0

> <PUBCHEM_ATOM_UDEF_STEREO_COUNT>
0

> <PUBCHEM_BOND_DEF_STEREO_COUNT>
0

> <PUBCHEM_BOND_UDEF_STEREO_COUNT>
0

> <PUBCHEM_ISOTOPIC_ATOM_COUNT>
0

> <PUBCHEM_COMPONENT_COUNT>
1

> <PUBCHEM_CACTVS_TAUTO_COUNT>
2

> <PUBCHEM_COORDINATE_TYPE>
1
5
255

> <PUBCHEM_BONDANNOTATIONS>
10  16  8
11  12  8
12  15  8
13  15  8
17  18  8
17  19  8
18  21  8
19  22  8
20  21  8
20  22  8
5  6  8
5  9  8
6  16  8
7  11  8
7  8  8
8  13  8
9  10  8

$$$$
59604787
  -OEChem-11021605012D

 54 57  0     0  0  0  0  0  0999 V2000
    2.9888    0.0713    0.0000 S   0  0  0  0  0  0  0  0  0  0  0  0
    4.2358   -1.4924    0.0000 F   0  0  0  0  0  0  0  0  0  0  0  0
    8.5426   -2.1388    0.0000 O   0  0  0  0  0  0  0  0  0  0  0  0
    7.3095    1.5983    0.0000 O   0  0  0  0  0  0  0  0  0  0  0  0
    2.8398    1.0601    0.0000 O   0  0  0  0  0  0  0  0  0  0  0  0
    3.1379   -0.9175    0.0000 O   0  0  0  0  0  0  0  0  0  0  0  0
    7.5676   -0.1144    0.0000 N   0  0  0  0  0  0  0  0  0  0  0  0
   13.7205    0.0155    0.0000 N   0  0  0  0  0  0  0  0  0  0  0  0
   14.5808    1.5188    0.0000 N   0  0  0  0  0  0  0  0  0  0  0  0
    8.5426    0.1082    0.0000 C   0  0  0  0  0  0  0  0  0  0  0  0
    7.1338   -1.0153    0.0000 C   0  0  0  0  0  0  0  0  0  0  0  0
    9.3244   -0.5153    0.0000 C   0  0  0  0  0  0  0  0  0  0  0  0
    7.5676   -1.9163    0.0000 C   0  0  0  0  0  0  0  0  0  0  0  0
    9.3244   -1.5153    0.0000 C   0  0  0  0  0  0  0  0  0  0  0  0
    6.9442    0.6675    0.0000 C   0  0  0  0  0  0  0  0  0  0  0  0
    5.9553    0.5184    0.0000 C   0  0  0  0  0  0  0  0  0  0  0  0
   10.2183    0.0193    0.0000 C   0  0  0  0  0  0  0  0  0  0  0  0
   11.1244   -0.4945    0.0000 C   0  0  0  0  0  0  0  0  0  0  0  0
    5.5900   -0.4124    0.0000 C   0  0  0  0  0  0  0  0  0  0  0  0
   10.2183   -2.0500    0.0000 C   0  0  0  0  0  0  0  0  0  0  0  0
    3.9777    0.2203    0.0000 C   0  0  0  0  0  0  0  0  0  0  0  0
   11.1244   -1.5361    0.0000 C   0  0  0  0  0  0  0  0  0  0  0  0
    5.3318    1.3003    0.0000 C   0  0  0  0  0  0  0  0  0  0  0  0
    4.6011   -0.5615    0.0000 C   0  0  0  0  0  0  0  0  0  0  0  0
    4.3430    1.1512    0.0000 C   0  0  0  0  0  0  0  0  0  0  0  0
   11.9885    0.0088    0.0000 C   0  0  0  0  0  0  0  0  0  0  0  0
    6.2135   -1.1943    0.0000 C   0  0  0  0  0  0  0  0  0  0  0  0
    2.0000   -0.0777    0.0000 C   0  0  0  0  0  0  0  0  0  0  0  0
   11.9846    1.0088    0.0000 C   0  0  0  0  0  0  0  0  0  0  0  0
   12.8565   -0.4878    0.0000 C   0  0  0  0  0  0  0  0  0  0  0  0
   12.8487    1.5122    0.0000 C   0  0  0  0  0  0  0  0  0  0  0  0
   13.7167    1.0155    0.0000 C   0  0  0  0  0  0  0  0  0  0  0  0
    9.0273    0.4947    0.0000 H   0  0  0  0  0  0  0  0  0  0  0  0
    8.2736    0.6668    0.0000 H   0  0  0  0  0  0  0  0  0  0  0  0
    6.6490   -0.6288    0.0000 H   0  0  0  0  0  0  0  0  0  0  0  0
    6.6490   -1.4019    0.0000 H   0  0  0  0  0  0  0  0  0  0  0  0
    6.9632   -2.0543    0.0000 H   0  0  0  0  0  0  0  0  0  0  0  0
    7.5676   -2.5363    0.0000 H   0  0  0  0  0  0  0  0  0  0  0  0
   10.2112    0.6393    0.0000 H   0  0  0  0  0  0  0  0  0  0  0  0
   10.2112   -2.6700    0.0000 H   0  0  0  0  0  0  0  0  0  0  0  0
   11.6601   -1.8482    0.0000 H   0  0  0  0  0  0  0  0  0  0  0  0
    5.5583    1.8774    0.0000 H   0  0  0  0  0  0  0  0  0  0  0  0
    3.9564    1.6360    0.0000 H   0  0  0  0  0  0  0  0  0  0  0  0
    5.7287   -1.5808    0.0000 H   0  0  0  0  0  0  0  0  0  0  0  0
    6.6000   -1.6790    0.0000 H   0  0  0  0  0  0  0  0  0  0  0  0
    6.6982   -0.8077    0.0000 H   0  0  0  0  0  0  0  0  0  0  0  0
    1.9076    0.5353    0.0000 H   0  0  0  0  0  0  0  0  0  0  0  0
    1.3869   -0.1701    0.0000 H   0  0  0  0  0  0  0  0  0  0  0  0
    2.0924   -0.6908    0.0000 H   0  0  0  0  0  0  0  0  0  0  0  0
   11.4465    1.3167    0.0000 H   0  0  0  0  0  0  0  0  0  0  0  0
   12.8588   -1.1078    0.0000 H   0  0  0  0  0  0  0  0  0  0  0  0
   12.8464    2.1321    0.0000 H   0  0  0  0  0  0  0  0  0  0  0  0
   15.1189    1.2109    0.0000 H   0  0  0  0  0  0  0  0  0  0  0  0
   14.5784    2.1388    0.0000 H   0  0  0  0  0  0  0  0  0  0  0  0
  1  5  2  0  0  0  0
  1  6  2  0  0  0  0
  1 21  1  0  0  0  0
  1 28  1  0  0  0  0
  2 24  1  0  0  0  0
  3 13  1  0  0  0  0
  3 14  1  0  0  0  0
  4 15  2  0  0  0  0
  7 10  1  0  0  0  0
  7 11  1  0  0  0  0
  7 15  1  0  0  0  0
  8 30  1  0  0  0  0
  8 32  2  0  0  0  0
  9 32  1  0  0  0  0
  9 53  1  0  0  0  0
  9 54  1  0  0  0  0
 10 12  1  0  0  0  0
 10 33  1  0  0  0  0
 10 34  1  0  0  0  0
 11 13  1  0  0  0  0
 11 35  1  0  0  0  0
 11 36  1  0  0  0  0
 12 14  2  0  0  0  0
 12 17  1  0  0  0  0
 13 37  1  0  0  0  0
 13 38  1  0  0  0  0
 14 20  1  0  0  0  0
 15 16  1  0  0  0  0
 16 19  2  0  0  0  0
 16 23  1  0  0  0  0
 17 18  2  0  0  0  0
 17 39  1  0  0  0  0
 18 22  1  0  0  0  0
 18 26  1  0  0  0  0
 19 24  1  0  0  0  0
 19 27  1  0  0  0  0
 20 22  2  0  0  0  0
 20 40  1  0  0  0  0
 21 24  2  0  0  0  0
 21 25  1  0  0  0  0
 22 41  1  0  0  0  0
 23 25  2  0  0  0  0
 23 42  1  0  0  0  0
 25 43  1  0  0  0  0
 26 29  1  0  0  0  0
 26 30  2  0  0  0  0
 27 44  1  0  0  0  0
 27 45  1  0  0  0  0
 27 46  1  0  0  0  0
 28 47  1  0  0  0  0
 28 48  1  0  0  0  0
 28 49  1  0  0  0  0
 29 31  2  0  0  0  0
 29 50  1  0  0  0  0
 30 51  1  0  0  0  0
 31 32  1  0  0  0  0
 31 52  1  0  0  0  0
M  END
> <PUBCHEM_COMPOUND_CID>
59604787

> <PUBCHEM_COMPOUND_CANONICALIZED>
1

> <PUBCHEM_CACTVS_COMPLEXITY>
776

> <PUBCHEM_CACTVS_HBOND_ACCEPTOR>
7

> <PUBCHEM_CACTVS_HBOND_DONOR>
1

> <PUBCHEM_CACTVS_ROTATABLE_BOND>
3

> <PUBCHEM_CACTVS_SUBSKEYS>
AAADceB7OQBAAAAAAAAAAAAAAAAAAAAAAAA8YIAABYAAAAAB0AAAHwQQAAAADATh2g6/t5NIFAqoAjN3dHDCiCk1KjAI2Dk+bNiOJvLktZuHOSjm1hPY6aeYyPCOsAACgAAYAABgAAUAADAAAAAAAAAAAA==

> <PUBCHEM_IUPAC_OPENEYE_NAME>
[7-(6-amino-3-pyridyl)-3,5-dihydro-2H-1,4-benzoxazepin-4-yl]-(3-fluoro-2-methyl-4-methylsulfonyl-phenyl)methanone

> <PUBCHEM_IUPAC_CAS_NAME>
[7-(6-amino-3-pyridinyl)-3,5-dihydro-2H-1,4-benzoxazepin-4-yl]-(3-fluoro-2-methyl-4-methylsulfonylphenyl)methanone

> <PUBCHEM_IUPAC_NAME>
[7-(6-aminopyridin-3-yl)-3,5-dihydro-2H-1,4-benzoxazepin-4-yl]-(3-fluoro-2-methyl-4-methylsulfonylphenyl)methanone

> <PUBCHEM_IUPAC_SYSTEMATIC_NAME>
[7-(6-azanylpyridin-3-yl)-3,5-dihydro-2H-1,4-benzoxazepin-4-yl]-(3-fluoranyl-2-methyl-4-methylsulfonyl-phenyl)methanone

> <PUBCHEM_IUPAC_TRADITIONAL_NAME>
[7-(6-amino-3-pyridyl)-3,5-dihydro-2H-1,4-benzoxazepin-4-yl]-(3-fluoro-4-mesyl-2-methyl-phenyl)methanone

> <PUBCHEM_IUPAC_INCHI>
InChI=1S/C23H22FN3O4S/c1-14-18(5-7-20(22(14)24)32(2,29)30)23(28)27-9-10-31-19-6-3-15(11-17(19)13-27)16-4-8-21(25)26-12-16/h3-8,11-12H,9-10,13H2,1-2H3,(H2,25,26)

> <PUBCHEM_IUPAC_INCHIKEY>
LNFBAYSBVQBKFR-UHFFFAOYSA-N

> <PUBCHEM_XLOGP3_AA>
2.5

> <PUBCHEM_EXACT_MASS>
455.132

> <PUBCHEM_MOLECULAR_FORMULA>
C23H22FN3O4S

> <PUBCHEM_MOLECULAR_WEIGHT>
455.504

> <PUBCHEM_OPENEYE_CAN_SMILES>
CC1=C(C=CC(=C1F)S(=O)(=O)C)C(=O)N2CCOC3=C(C2)C=C(C=C3)C4=CN=C(C=C4)N

> <PUBCHEM_OPENEYE_ISO_SMILES>
CC1=C(C=CC(=C1F)S(=O)(=O)C)C(=O)N2CCOC3=C(C2)C=C(C=C3)C4=CN=C(C=C4)N

> <PUBCHEM_CACTVS_TPSA>
111

> <PUBCHEM_MONOISOTOPIC_WEIGHT>
455.132

> <PUBCHEM_TOTAL_CHARGE>
0

> <PUBCHEM_HEAVY_ATOM_COUNT>
32

> <PUBCHEM_ATOM_DEF_STEREO_COUNT>
0

> <PUBCHEM_ATOM_UDEF_STEREO_COUNT>
0

> <PUBCHEM_BOND_DEF_STEREO_COUNT>
0

> <PUBCHEM_BOND_UDEF_STEREO_COUNT>
0

> <PUBCHEM_ISOTOPIC_ATOM_COUNT>
0

> <PUBCHEM_COMPONENT_COUNT>
1

> <PUBCHEM_CACTVS_TAUTO_COUNT>
2

> <PUBCHEM_COORDINATE_TYPE>
1
5
255

> <PUBCHEM_BONDANNOTATIONS>
12  14  8
12  17  8
14  20  8
16  19  8
16  23  8
17  18  8
18  22  8
19  24  8
20  22  8
21  24  8
21  25  8
23  25  8
26  29  8
26  30  8
29  31  8
31  32  8
8  30  8
8  32  8

$$$$
72721921
  -OEChem-11021605012D

 36 39  0     0  0  0  0  0  0999 V2000
    9.2913    4.3042    0.0000 F   0  0  0  0  0  0  0  0  0  0  0  0
   10.3094    3.7164    0.0000 F   0  0  0  0  0  0  0  0  0  0  0  0
    9.8010    2.4019    0.0000 O   0  0  0  0  0  0  0  0  0  0  0  0
    8.4071    3.2066    0.0000 O   0  0  0  0  0  0  0  0  0  0  0  0
    5.0000   -0.8401    0.0000 O   0  0  0  0  0  0  0  0  0  0  0  0
    2.5000   -3.4382    0.0000 O   0  0  0  0  0  0  0  0  0  0  0  0
    7.9887   -0.7370    0.0000 N   0  0  0  0  0  0  0  0  0  0  0  0
    6.5949    0.0677    0.0000 N   0  0  0  0  0  0  0  0  0  0  0  0
    6.5000   -1.7061    0.0000 N   0  0  0  0  0  0  0  0  0  0  0  0
    8.1979    0.2348    0.0000 C   0  0  0  0  0  0  0  0  0  0  0  0
    7.3319    0.7348    0.0000 C   0  0  0  0  0  0  0  0  0  0  0  0
    9.0640    1.7348    0.0000 C   0  0  0  0  0  0  0  0  0  0  0  0
    8.1979    2.2348    0.0000 C   0  0  0  0  0  0  0  0  0  0  0  0
    9.0640    0.7348    0.0000 C   0  0  0  0  0  0  0  0  0  0  0  0
    7.3319    1.7348    0.0000 C   0  0  0  0  0  0  0  0  0  0  0  0
    7.0000   -0.8401    0.0000 C   0  0  0  0  0  0  0  0  0  0  0  0
    9.3958    3.3097    0.0000 C   0  0  0  0  0  0  0  0  0  0  0  0
    5.5000   -1.7061    0.0000 C   0  0  0  0  0  0  0  0  0  0  0  0
    5.0000   -2.5721    0.0000 C   0  0  0  0  0  0  0  0  0  0  0  0
    4.0000   -2.5721    0.0000 C   0  0  0  0  0  0  0  0  0  0  0  0
    5.5000   -3.4382    0.0000 C   0  0  0  0  0  0  0  0  0  0  0  0
    3.5000   -3.4382    0.0000 C   0  0  0  0  0  0  0  0  0  0  0  0
    5.0000   -4.3042    0.0000 C   0  0  0  0  0  0  0  0  0  0  0  0
    4.0000   -4.3042    0.0000 C   0  0  0  0  0  0  0  0  0  0  0  0
    2.0000   -4.3042    0.0000 C   0  0  0  0  0  0  0  0  0  0  0  0
    9.6009    0.4248    0.0000 H   0  0  0  0  0  0  0  0  0  0  0  0
    6.7950    2.0448    0.0000 H   0  0  0  0  0  0  0  0  0  0  0  0
    8.4028   -1.1985    0.0000 H   0  0  0  0  0  0  0  0  0  0  0  0
    6.8100   -2.2430    0.0000 H   0  0  0  0  0  0  0  0  0  0  0  0
    3.6900   -2.0352    0.0000 H   0  0  0  0  0  0  0  0  0  0  0  0
    6.1200   -3.4382    0.0000 H   0  0  0  0  0  0  0  0  0  0  0  0
    5.3100   -4.8411    0.0000 H   0  0  0  0  0  0  0  0  0  0  0  0
    3.6900   -4.8411    0.0000 H   0  0  0  0  0  0  0  0  0  0  0  0
    1.4631   -3.9942    0.0000 H   0  0  0  0  0  0  0  0  0  0  0  0
    1.6900   -4.8411    0.0000 H   0  0  0  0  0  0  0  0  0  0  0  0
    2.5369   -4.6142    0.0000 H   0  0  0  0  0  0  0  0  0  0  0  0
  1 17  1  0  0  0  0
  2 17  1  0  0  0  0
  3 12  1  0  0  0  0
  3 17  1  0  0  0  0
  4 13  1  0  0  0  0
  4 17  1  0  0  0  0
  5 18  2  0  0  0  0
  6 22  1  0  0  0  0
  6 25  1  0  0  0  0
  7 10  1  0  0  0  0
  7 16  1  0  0  0  0
  7 28  1  0  0  0  0
  8 11  1  0  0  0  0
  8 16  2  0  0  0  0
  9 16  1  0  0  0  0
  9 18  1  0  0  0  0
  9 29  1  0  0  0  0
 10 11  1  0  0  0  0
 10 14  2  0  0  0  0
 11 15  2  0  0  0  0
 12 13  2  0  0  0  0
 12 14  1  0  0  0  0
 13 15  1  0  0  0  0
 14 26  1  0  0  0  0
 15 27  1  0  0  0  0
 18 19  1  0  0  0  0
 19 20  2  0  0  0  0
 19 21  1  0  0  0  0
 20 22  1  0  0  0  0
 20 30  1  0  0  0  0
 21 23  2  0  0  0  0
 21 31  1  0  0  0  0
 22 24  2  0  0  0  0
 23 24  1  0  0  0  0
 23 32  1  0  0  0  0
 24 33  1  0  0  0  0
 25 34  1  0  0  0  0
 25 35  1  0  0  0  0
 25 36  1  0  0  0  0
M  END
> <PUBCHEM_COMPOUND_CID>
72721921

> <PUBCHEM_COMPOUND_CANONICALIZED>
1

> <PUBCHEM_CACTVS_COMPLEXITY>
524

> <PUBCHEM_CACTVS_HBOND_ACCEPTOR>
7

> <PUBCHEM_CACTVS_HBOND_DONOR>
2

> <PUBCHEM_CACTVS_ROTATABLE_BOND>
3

> <PUBCHEM_CACTVS_SUBSKEYS>
AAADccB7OYAAAAAAAAAAAAAAAAAAAWJAAAAwYAAAAAAAAFgB9AAAHwAQAAAADAyBnhIz3rbJlACoAyVydACCiC2lMqAJmSE2/NidbrLEvZu0MSpu0RtO6ae62BOOAEABAgAAQCAAgAIEAACAQAAAAAAAAA==

> <PUBCHEM_IUPAC_OPENEYE_NAME>
N-(2,2-difluoro-5H-[1,3]dioxolo[4,5-f]benzimidazol-6-yl)-3-methoxy-benzamide

> <PUBCHEM_IUPAC_CAS_NAME>
N-(2,2-difluoro-5H-[1,3]dioxolo[4,5-f]benzimidazol-6-yl)-3-methoxybenzamide

> <PUBCHEM_IUPAC_NAME>
N-(2,2-difluoro-5H-[1,3]dioxolo[4,5-f]benzimidazol-6-yl)-3-methoxybenzamide

> <PUBCHEM_IUPAC_SYSTEMATIC_NAME>
N-[2,2-bis(fluoranyl)-5H-[1,3]dioxolo[4,5-f]benzimidazol-6-yl]-3-methoxy-benzamide

> <PUBCHEM_IUPAC_TRADITIONAL_NAME>
N-(2,2-difluoro-5H-[1,3]dioxolo[4,5-f]benzimidazol-6-yl)-3-methoxy-benzamide

> <PUBCHEM_IUPAC_INCHI>
InChI=1S/C16H11F2N3O4/c1-23-9-4-2-3-8(5-9)14(22)21-15-19-10-6-12-13(7-11(10)20-15)25-16(17,18)24-12/h2-7H,1H3,(H2,19,20,21,22)

> <PUBCHEM_IUPAC_INCHIKEY>
KIXUMWAIYCKDQQ-UHFFFAOYSA-N

> <PUBCHEM_XLOGP3_AA>
3.2

> <PUBCHEM_EXACT_MASS>
347.072

> <PUBCHEM_MOLECULAR_FORMULA>
C16H11F2N3O4

> <PUBCHEM_MOLECULAR_WEIGHT>
347.278

> <PUBCHEM_OPENEYE_CAN_SMILES>
COC1=CC=CC(=C1)C(=O)NC2=NC3=CC4=C(C=C3N2)OC(O4)(F)F

> <PUBCHEM_OPENEYE_ISO_SMILES>
COC1=CC=CC(=C1)C(=O)NC2=NC3=CC4=C(C=C3N2)OC(O4)(F)F

> <PUBCHEM_CACTVS_TPSA>
85.5

> <PUBCHEM_MONOISOTOPIC_WEIGHT>
347.072

> <PUBCHEM_TOTAL_CHARGE>
0

> <PUBCHEM_HEAVY_ATOM_COUNT>
25

> <PUBCHEM_ATOM_DEF_STEREO_COUNT>
0

> <PUBCHEM_ATOM_UDEF_STEREO_COUNT>
0

> <PUBCHEM_BOND_DEF_STEREO_COUNT>
0

> <PUBCHEM_BOND_UDEF_STEREO_COUNT>
0

> <PUBCHEM_ISOTOPIC_ATOM_COUNT>
0

> <PUBCHEM_COMPONENT_COUNT>
1

> <PUBCHEM_CACTVS_TAUTO_COUNT>
3

> <PUBCHEM_COORDINATE_TYPE>
1
5
255

> <PUBCHEM_BONDANNOTATIONS>
10  11  8
10  14  8
11  15  8
12  13  8
12  14  8
13  15  8
19  20  8
19  21  8
20  22  8
21  23  8
22  24  8
23  24  8
7  10  8
7  16  8
8  11  8
8  16  8

$$$$
9549297
  -OEChem-11021605012D

 69 73  0     1  0  0  0  0  0999 V2000
    2.0000   -0.0338    0.0000 Cl  0  0  0  0  0  0  0  0  0  0  0  0
    6.3301   -0.5338    0.0000 S   0  0  0  0  0  0  0  0  0  0  0  0
   12.9293    2.9278    0.0000 O   0  0  0  0  0  0  0  0  0  0  0  0
   11.4580   -1.5338    0.0000 O   0  0  0  0  0  0  0  0  0  0  0  0
    5.8301   -1.3998    0.0000 O   0  0  0  0  0  0  0  0  0  0  0  0
    6.8301    0.3322    0.0000 O   0  0  0  0  0  0  0  0  0  0  0  0
   14.2144    1.7666    0.0000 N   0  0  0  0  0  0  0  0  0  0  0  0
   16.1700    1.3474    0.0000 N   0  0  0  0  0  0  0  0  0  0  0  0
   11.9056   -0.2427    0.0000 N   0  0  0  0  0  0  0  0  0  0  0  0
    9.8744   -2.3385    0.0000 N   0  0  0  0  0  0  0  0  0  0  0  0
    5.4641   -0.0338    0.0000 N   0  0  3  0  0  0  0  0  0  0  0  0
   14.8849    2.5086    0.0000 C   0  0  0  0  0  0  0  0  0  0  0  0
   14.5218    0.8151    0.0000 C   0  0  0  0  0  0  0  0  0  0  0  0
   15.4996    0.6055    0.0000 C   0  0  0  0  0  0  0  0  0  0  0  0
   15.8627    2.2990    0.0000 C   0  0  0  0  0  0  0  0  0  0  0  0
   13.2367    1.9763    0.0000 C   0  0  0  0  0  0  0  0  0  0  0  0
   12.5662    1.2343    0.0000 C   0  0  0  0  0  0  0  0  0  0  0  0
   11.5719    1.3405    0.0000 C   0  0  0  0  0  0  0  0  0  0  0  0
   12.7725    0.2558    0.0000 C   0  0  0  0  0  0  0  0  0  0  0  0
   17.1478    1.1378    0.0000 C   0  0  0  0  0  0  0  0  0  0  0  0
   11.1636    0.4277    0.0000 C   0  0  0  0  0  0  0  0  0  0  0  0
    9.8744   -0.7291    0.0000 C   0  0  0  0  0  0  0  0  0  0  0  0
   10.1851    0.2215    0.0000 C   0  0  0  0  0  0  0  0  0  0  0  0
    8.9282   -1.0338    0.0000 C   0  0  0  0  0  0  0  0  0  0  0  0
   11.0734    2.2074    0.0000 C   0  0  0  0  0  0  0  0  0  0  0  0
    8.9282   -2.0338    0.0000 C   0  0  0  0  0  0  0  0  0  0  0  0
   13.6853   -0.1526    0.0000 C   0  0  0  0  0  0  0  0  0  0  0  0
    7.1962   -1.0338    0.0000 C   0  0  0  0  0  0  0  0  0  0  0  0
    8.0622   -0.5338    0.0000 C   0  0  0  0  0  0  0  0  0  0  0  0
   10.4580   -1.5338    0.0000 C   0  0  0  0  0  0  0  0  0  0  0  0
    8.0622   -2.5338    0.0000 C   0  0  0  0  0  0  0  0  0  0  0  0
    7.1962   -2.0338    0.0000 C   0  0  0  0  0  0  0  0  0  0  0  0
    4.5981   -0.5338    0.0000 C   0  0  0  0  0  0  0  0  0  0  0  0
    5.4641    0.9662    0.0000 C   0  0  0  0  0  0  0  0  0  0  0  0
    3.7320   -0.0338    0.0000 C   0  0  0  0  0  0  0  0  0  0  0  0
    4.5981   -1.5338    0.0000 C   0  0  0  0  0  0  0  0  0  0  0  0
    2.8660   -0.5338    0.0000 C   0  0  0  0  0  0  0  0  0  0  0  0
    3.7320   -2.0338    0.0000 C   0  0  0  0  0  0  0  0  0  0  0  0
    2.8660   -1.5338    0.0000 C   0  0  0  0  0  0  0  0  0  0  0  0
   15.1181    3.0831    0.0000 H   0  0  0  0  0  0  0  0  0  0  0  0
   14.3596    2.8381    0.0000 H   0  0  0  0  0  0  0  0  0  0  0  0
   13.9077    0.7298    0.0000 H   0  0  0  0  0  0  0  0  0  0  0  0
   14.4991    0.1955    0.0000 H   0  0  0  0  0  0  0  0  0  0  0  0
   15.2664    0.0310    0.0000 H   0  0  0  0  0  0  0  0  0  0  0  0
   16.0248    0.2760    0.0000 H   0  0  0  0  0  0  0  0  0  0  0  0
   16.4768    2.3843    0.0000 H   0  0  0  0  0  0  0  0  0  0  0  0
   15.8854    2.9186    0.0000 H   0  0  0  0  0  0  0  0  0  0  0  0
   17.0179    0.5316    0.0000 H   0  0  0  0  0  0  0  0  0  0  0  0
   17.7540    1.0079    0.0000 H   0  0  0  0  0  0  0  0  0  0  0  0
   17.2778    1.7441    0.0000 H   0  0  0  0  0  0  0  0  0  0  0  0
   11.8397   -0.8592    0.0000 H   0  0  0  0  0  0  0  0  0  0  0  0
    9.7710    0.6829    0.0000 H   0  0  0  0  0  0  0  0  0  0  0  0
   11.6109    2.5165    0.0000 H   0  0  0  0  0  0  0  0  0  0  0  0
   10.7643    2.7449    0.0000 H   0  0  0  0  0  0  0  0  0  0  0  0
   10.5359    1.8983    0.0000 H   0  0  0  0  0  0  0  0  0  0  0  0
   13.4321   -0.7185    0.0000 H   0  0  0  0  0  0  0  0  0  0  0  0
   14.2513   -0.4057    0.0000 H   0  0  0  0  0  0  0  0  0  0  0  0
   13.9385    0.4134    0.0000 H   0  0  0  0  0  0  0  0  0  0  0  0
    8.0622    0.0862    0.0000 H   0  0  0  0  0  0  0  0  0  0  0  0
   10.0670   -2.9278    0.0000 H   0  0  0  0  0  0  0  0  0  0  0  0
    8.0622   -3.1538    0.0000 H   0  0  0  0  0  0  0  0  0  0  0  0
    6.6592   -2.3438    0.0000 H   0  0  0  0  0  0  0  0  0  0  0  0
    6.0841    0.9662    0.0000 H   0  0  0  0  0  0  0  0  0  0  0  0
    5.4641    1.5862    0.0000 H   0  0  0  0  0  0  0  0  0  0  0  0
    4.8441    0.9662    0.0000 H   0  0  0  0  0  0  0  0  0  0  0  0
    3.7320    0.5862    0.0000 H   0  0  0  0  0  0  0  0  0  0  0  0
    5.1350   -1.8438    0.0000 H   0  0  0  0  0  0  0  0  0  0  0  0
    3.7320   -2.6538    0.0000 H   0  0  0  0  0  0  0  0  0  0  0  0
    2.3291   -1.8438    0.0000 H   0  0  0  0  0  0  0  0  0  0  0  0
  1 37  1  0  0  0  0
  2  5  2  0  0  0  0
  2  6  2  0  0  0  0
  2 11  1  0  0  0  0
  2 28  1  0  0  0  0
  3 16  2  0  0  0  0
  4 30  2  0  0  0  0
  7 12  1  0  0  0  0
  7 13  1  0  0  0  0
  7 16  1  0  0  0  0
  8 14  1  0  0  0  0
  8 15  1  0  0  0  0
  8 20  1  0  0  0  0
  9 19  1  0  0  0  0
  9 21  1  0  0  0  0
  9 51  1  0  0  0  0
 10 26  1  0  0  0  0
 10 30  1  0  0  0  0
 10 60  1  0  0  0  0
 11 33  1  0  0  0  0
 11 34  1  0  0  0  0
 12 15  1  0  0  0  0
 12 40  1  0  0  0  0
 12 41  1  0  0  0  0
 13 14  1  0  0  0  0
 13 42  1  0  0  0  0
 13 43  1  0  0  0  0
 14 44  1  0  0  0  0
 14 45  1  0  0  0  0
 15 46  1  0  0  0  0
 15 47  1  0  0  0  0
 16 17  1  0  0  0  0
 17 18  1  0  0  0  0
 17 19  2  0  0  0  0
 18 21  2  0  0  0  0
 18 25  1  0  0  0  0
 19 27  1  0  0  0  0
 20 48  1  0  0  0  0
 20 49  1  0  0  0  0
 20 50  1  0  0  0  0
 21 23  1  0  0  0  0
 22 23  2  0  0  0  0
 22 24  1  0  0  0  0
 22 30  1  0  0  0  0
 23 52  1  0  0  0  0
 24 26  2  0  0  0  0
 24 29  1  0  0  0  0
 25 53  1  0  0  0  0
 25 54  1  0  0  0  0
 25 55  1  0  0  0  0
 26 31  1  0  0  0  0
 27 56  1  0  0  0  0
 27 57  1  0  0  0  0
 27 58  1  0  0  0  0
 28 29  2  0  0  0  0
 28 32  1  0  0  0  0
 29 59  1  0  0  0  0
 31 32  2  0  0  0  0
 31 61  1  0  0  0  0
 32 62  1  0  0  0  0
 33 35  2  0  0  0  0
 33 36  1  0  0  0  0
 34 63  1  0  0  0  0
 34 64  1  0  0  0  0
 34 65  1  0  0  0  0
 35 37  1  0  0  0  0
 35 66  1  0  0  0  0
 36 38  2  0  0  0  0
 36 67  1  0  0  0  0
 37 39  2  0  0  0  0
 38 39  1  0  0  0  0
 38 68  1  0  0  0  0
 39 69  1  0  0  0  0
M  END
> <PUBCHEM_COMPOUND_CID>
9549297

> <PUBCHEM_COMPOUND_CANONICALIZED>
1

> <PUBCHEM_CACTVS_COMPLEXITY>
1070

> <PUBCHEM_CACTVS_HBOND_ACCEPTOR>
6

> <PUBCHEM_CACTVS_HBOND_DONOR>
2

> <PUBCHEM_CACTVS_ROTATABLE_BOND>
5

> <PUBCHEM_CACTVS_SUBSKEYS>
AAADceB7uABEAAAAAAAAAAAAAAAAAWLAAAA8YIAAAAAAAFgB0AAAHgYQQAAADArB3iQywZPJkAKoAyVyVHDCgDAlByAImTk4ZtgIYHrB15GUIYhglgDIyccciICOgAQAgAICAAAACAEABAQAAAAAAAAAAA==

> <PUBCHEM_IUPAC_OPENEYE_NAME>
(3Z)-N-(3-chlorophenyl)-3-[[3,5-dimethyl-4-(4-methylpiperazine-1-carbonyl)-1H-pyrrol-2-yl]methylene]-N-methyl-2-oxo-indoline-5-sulfonamide

> <PUBCHEM_IUPAC_CAS_NAME>
(3Z)-N-(3-chlorophenyl)-3-[[3,5-dimethyl-4-[(4-methyl-1-piperazinyl)-oxomethyl]-1H-pyrrol-2-yl]methylidene]-N-methyl-2-oxo-1H-indole-5-sulfonamide

> <PUBCHEM_IUPAC_NAME>
(3Z)-N-(3-chlorophenyl)-3-[[3,5-dimethyl-4-(4-methylpiperazine-1-carbonyl)-1H-pyrrol-2-yl]methylidene]-N-methyl-2-oxo-1H-indole-5-sulfonamide

> <PUBCHEM_IUPAC_SYSTEMATIC_NAME>
(3Z)-N-(3-chlorophenyl)-3-[[3,5-dimethyl-4-(4-methylpiperazin-1-yl)carbonyl-1H-pyrrol-2-yl]methylidene]-N-methyl-2-oxidanylidene-1H-indole-5-sulfonamide

> <PUBCHEM_IUPAC_TRADITIONAL_NAME>
(3Z)-N-(3-chlorophenyl)-3-[[3,5-dimethyl-4-(4-methylpiperazine-1-carbonyl)-1H-pyrrol-2-yl]methylene]-2-keto-N-methyl-indoline-5-sulfonamide

> <PUBCHEM_IUPAC_INCHI>
InChI=1S/C28H30ClN5O4S/c1-17-25(30-18(2)26(17)28(36)34-12-10-32(3)11-13-34)16-23-22-15-21(8-9-24(22)31-27(23)35)39(37,38)33(4)20-7-5-6-19(29)14-20/h5-9,14-16,30H,10-13H2,1-4H3,(H,31,35)/b23-16-

> <PUBCHEM_IUPAC_INCHIKEY>
FPYJSJDOHRDAMT-KQWNVCNZSA-N

> <PUBCHEM_XLOGP3_AA>
3.1

> <PUBCHEM_EXACT_MASS>
567.171

> <PUBCHEM_MOLECULAR_FORMULA>
C28H30ClN5O4S

> <PUBCHEM_MOLECULAR_WEIGHT>
568.089

> <PUBCHEM_OPENEYE_CAN_SMILES>
CC1=C(NC(=C1C(=O)N2CCN(CC2)C)C)C=C3C4=C(C=CC(=C4)S(=O)(=O)N(C)C5=CC(=CC=C5)Cl)NC3=O

> <PUBCHEM_OPENEYE_ISO_SMILES>
CC1=C(NC(=C1C(=O)N2CCN(CC2)C)C)/C=C\3/C4=C(C=CC(=C4)S(=O)(=O)N(C)C5=CC(=CC=C5)Cl)NC3=O

> <PUBCHEM_CACTVS_TPSA>
114

> <PUBCHEM_MONOISOTOPIC_WEIGHT>
567.171

> <PUBCHEM_TOTAL_CHARGE>
0

> <PUBCHEM_HEAVY_ATOM_COUNT>
39

> <PUBCHEM_ATOM_DEF_STEREO_COUNT>
0

> <PUBCHEM_ATOM_UDEF_STEREO_COUNT>
0

> <PUBCHEM_BOND_DEF_STEREO_COUNT>
1

> <PUBCHEM_BOND_UDEF_STEREO_COUNT>
0

> <PUBCHEM_ISOTOPIC_ATOM_COUNT>
0

> <PUBCHEM_COMPONENT_COUNT>
1

> <PUBCHEM_CACTVS_TAUTO_COUNT>
30

> <PUBCHEM_COORDINATE_TYPE>
1
5
255

> <PUBCHEM_BONDANNOTATIONS>
17  18  8
17  19  8
18  21  8
24  26  8
24  29  8
26  31  8
28  29  8
28  32  8
31  32  8
33  35  8
33  36  8
35  37  8
36  38  8
37  39  8
38  39  8
9  19  8
9  21  8

$$$$
448043
  -OEChem-11021605012D

 43 45  0     1  0  0  0  0  0999 V2000
    3.6828    0.3573    0.0000 S   0  0  0  0  0  0  0  0  0  0  0  0
    2.6828    0.3573    0.0000 O   0  0  0  0  0  0  0  0  0  0  0  0
    4.6828    0.3573    0.0000 O   0  0  0  0  0  0  0  0  0  0  0  0
    3.6828   -0.6427    0.0000 N   0  0  3  0  0  0  0  0  0  0  0  0
    3.1828   -2.8333    0.0000 N   0  0  0  0  0  0  0  0  0  0  0  0
    6.3488    2.8781    0.0000 N   0  0  0  0  0  0  0  0  0  0  0  0
    2.7818   -1.0766    0.0000 C   0  0  2  0  0  0  0  0  0  0  0  0
    4.5838   -1.0766    0.0000 C   0  0  0  0  0  0  0  0  0  0  0  0
    2.5593   -2.0515    0.0000 C   0  0  0  0  0  0  0  0  0  0  0  0
    4.8063   -2.0515    0.0000 C   0  0  0  0  0  0  0  0  0  0  0  0
    4.1828   -2.8333    0.0000 C   0  0  0  0  0  0  0  0  0  0  0  0
    2.0000   -0.4531    0.0000 C   0  0  0  0  0  0  0  0  0  0  0  0
    3.6828    1.3573    0.0000 C   0  0  0  0  0  0  0  0  0  0  0  0
    4.5488    1.8573    0.0000 C   0  0  0  0  0  0  0  0  0  0  0  0
    2.8168    1.8573    0.0000 C   0  0  0  0  0  0  0  0  0  0  0  0
    4.5488    2.8573    0.0000 C   0  0  0  0  0  0  0  0  0  0  0  0
    5.4428    1.3226    0.0000 C   0  0  0  0  0  0  0  0  0  0  0  0
    2.8168    2.8573    0.0000 C   0  0  0  0  0  0  0  0  0  0  0  0
    3.6828    3.3573    0.0000 C   0  0  0  0  0  0  0  0  0  0  0  0
    5.4428    3.3920    0.0000 C   0  0  0  0  0  0  0  0  0  0  0  0
    6.3488    1.8365    0.0000 C   0  0  0  0  0  0  0  0  0  0  0  0
    5.4312    0.3227    0.0000 C   0  0  0  0  0  0  0  0  0  0  0  0
    2.8512   -0.4605    0.0000 H   0  0  0  0  0  0  0  0  0  0  0  0
    5.2038   -1.0766    0.0000 H   0  0  0  0  0  0  0  0  0  0  0  0
    4.7217   -0.4721    0.0000 H   0  0  0  0  0  0  0  0  0  0  0  0
    2.0007   -1.7825    0.0000 H   0  0  0  0  0  0  0  0  0  0  0  0
    2.1728   -2.5363    0.0000 H   0  0  0  0  0  0  0  0  0  0  0  0
    5.1928   -2.5363    0.0000 H   0  0  0  0  0  0  0  0  0  0  0  0
    5.3649   -1.7825    0.0000 H   0  0  0  0  0  0  0  0  0  0  0  0
    4.0448   -3.4378    0.0000 H   0  0  0  0  0  0  0  0  0  0  0  0
    4.7414   -3.1024    0.0000 H   0  0  0  0  0  0  0  0  0  0  0  0
    2.9138   -3.3920    0.0000 H   0  0  0  0  0  0  0  0  0  0  0  0
    2.3866    0.0316    0.0000 H   0  0  0  0  0  0  0  0  0  0  0  0
    1.5153   -0.0665    0.0000 H   0  0  0  0  0  0  0  0  0  0  0  0
    1.6134   -0.9378    0.0000 H   0  0  0  0  0  0  0  0  0  0  0  0
    2.2798    1.5473    0.0000 H   0  0  0  0  0  0  0  0  0  0  0  0
    2.2798    3.1673    0.0000 H   0  0  0  0  0  0  0  0  0  0  0  0
    3.6828    3.9773    0.0000 H   0  0  0  0  0  0  0  0  0  0  0  0
    5.4356    4.0119    0.0000 H   0  0  0  0  0  0  0  0  0  0  0  0
    6.8846    1.5244    0.0000 H   0  0  0  0  0  0  0  0  0  0  0  0
    4.8112    0.3299    0.0000 H   0  0  0  0  0  0  0  0  0  0  0  0
    5.4240   -0.2973    0.0000 H   0  0  0  0  0  0  0  0  0  0  0  0
    6.0512    0.3155    0.0000 H   0  0  0  0  0  0  0  0  0  0  0  0
  1  2  2  0  0  0  0
  1  3  2  0  0  0  0
  1  4  1  0  0  0  0
  1 13  1  0  0  0  0
  4  7  1  0  0  0  0
  4  8  1  0  0  0  0
  5  9  1  0  0  0  0
  5 11  1  0  0  0  0
  5 32  1  0  0  0  0
  6 20  2  0  0  0  0
  6 21  1  0  0  0  0
  7  9  1  0  0  0  0
  7 12  1  6  0  0  0
  7 23  1  0  0  0  0
  8 10  1  0  0  0  0
  8 24  1  0  0  0  0
  8 25  1  0  0  0  0
  9 26  1  0  0  0  0
  9 27  1  0  0  0  0
 10 11  1  0  0  0  0
 10 28  1  0  0  0  0
 10 29  1  0  0  0  0
 11 30  1  0  0  0  0
 11 31  1  0  0  0  0
 12 33  1  0  0  0  0
 12 34  1  0  0  0  0
 12 35  1  0  0  0  0
 13 14  1  0  0  0  0
 13 15  2  0  0  0  0
 14 16  2  0  0  0  0
 14 17  1  0  0  0  0
 15 18  1  0  0  0  0
 15 36  1  0  0  0  0
 16 19  1  0  0  0  0
 16 20  1  0  0  0  0
 17 21  2  0  0  0  0
 17 22  1  0  0  0  0
 18 19  2  0  0  0  0
 18 37  1  0  0  0  0
 19 38  1  0  0  0  0
 20 39  1  0  0  0  0
 21 40  1  0  0  0  0
 22 41  1  0  0  0  0
 22 42  1  0  0  0  0
 22 43  1  0  0  0  0
M  END
> <PUBCHEM_COMPOUND_CID>
448043

> <PUBCHEM_COMPOUND_CANONICALIZED>
1

> <PUBCHEM_CACTVS_COMPLEXITY>
476

> <PUBCHEM_CACTVS_HBOND_ACCEPTOR>
5

> <PUBCHEM_CACTVS_HBOND_DONOR>
1

> <PUBCHEM_CACTVS_ROTATABLE_BOND>
2

> <PUBCHEM_CACTVS_SUBSKEYS>
AAADceB7MABAAAAAAAAAAAAAAAAAAAAAAAA8QAAABYAAAACx8AAAHAQQQAAADCjBWgQ+gdLIEAKgAjBnRHDCgDAxACAI2LgoRJgIYOLA0ZGUIAhgkADIyAcQgMAOgAAAgAAUAAAAAAEAACgAAAAAAAAAAA==

> <PUBCHEM_IUPAC_OPENEYE_NAME>
4-methyl-5-[[(2S)-2-methyl-1,4-diazepan-1-yl]sulfonyl]isoquinoline

> <PUBCHEM_IUPAC_CAS_NAME>
4-methyl-5-[[(2S)-2-methyl-1,4-diazepan-1-yl]sulfonyl]isoquinoline

> <PUBCHEM_IUPAC_NAME>
4-methyl-5-[[(2S)-2-methyl-1,4-diazepan-1-yl]sulfonyl]isoquinoline

> <PUBCHEM_IUPAC_SYSTEMATIC_NAME>
4-methyl-5-[[(2S)-2-methyl-1,4-diazepan-1-yl]sulfonyl]isoquinoline

> <PUBCHEM_IUPAC_TRADITIONAL_NAME>
4-methyl-5-[[(2S)-2-methyl-1,4-diazepan-1-yl]sulfonyl]isoquinoline

> <PUBCHEM_IUPAC_INCHI>
InChI=1S/C16H21N3O2S/c1-12-9-18-11-14-5-3-6-15(16(12)14)22(20,21)19-8-4-7-17-10-13(19)2/h3,5-6,9,11,13,17H,4,7-8,10H2,1-2H3/t13-/m0/s1

> <PUBCHEM_IUPAC_INCHIKEY>
AWDORCFLUJZUQS-ZDUSSCGKSA-N

> <PUBCHEM_XLOGP3_AA>
1.7

> <PUBCHEM_EXACT_MASS>
319.135

> <PUBCHEM_MOLECULAR_FORMULA>
C16H21N3O2S

> <PUBCHEM_MOLECULAR_WEIGHT>
319.423

> <PUBCHEM_OPENEYE_CAN_SMILES>
CC1CNCCCN1S(=O)(=O)C2=CC=CC3=CN=CC(=C32)C

> <PUBCHEM_OPENEYE_ISO_SMILES>
C[C@H]1CNCCCN1S(=O)(=O)C2=CC=CC3=CN=CC(=C32)C

> <PUBCHEM_CACTVS_TPSA>
70.7

> <PUBCHEM_MONOISOTOPIC_WEIGHT>
319.135

> <PUBCHEM_TOTAL_CHARGE>
0

> <PUBCHEM_HEAVY_ATOM_COUNT>
22

> <PUBCHEM_ATOM_DEF_STEREO_COUNT>
1

> <PUBCHEM_ATOM_UDEF_STEREO_COUNT>
0

> <PUBCHEM_BOND_DEF_STEREO_COUNT>
0

> <PUBCHEM_BOND_UDEF_STEREO_COUNT>
0

> <PUBCHEM_ISOTOPIC_ATOM_COUNT>
0

> <PUBCHEM_COMPONENT_COUNT>
1

> <PUBCHEM_CACTVS_TAUTO_COUNT>
1

> <PUBCHEM_COORDINATE_TYPE>
1
5
255

> <PUBCHEM_BONDANNOTATIONS>
13  14  8
13  15  8
14  16  8
14  17  8
15  18  8
16  19  8
16  20  8
17  21  8
18  19  8
6  20  8
6  21  8
7  12  6

$$$$
667639
  -OEChem-11021605012D

 30 31  0     0  0  0  0  0  0999 V2000
    2.5369   -2.9050    0.0000 O   0  0  0  0  0  0  0  0  0  0  0  0
    3.4030    3.5950    0.0000 O   0  0  0  0  0  0  0  0  0  0  0  0
    6.8671    3.5950    0.0000 O   0  0  0  0  0  0  0  0  0  0  0  0
    4.2690   -3.9050    0.0000 O   0  0  0  0  0  0  0  0  0  0  0  0
    5.1350    1.5950    0.0000 C   0  0  0  0  0  0  0  0  0  0  0  0
    4.2690   -0.9050    0.0000 C   0  0  0  0  0  0  0  0  0  0  0  0
    5.1350    0.5950    0.0000 C   0  0  0  0  0  0  0  0  0  0  0  0
    4.2690    0.0950    0.0000 C   0  0  0  0  0  0  0  0  0  0  0  0
    3.4030   -1.4050    0.0000 C   0  0  0  0  0  0  0  0  0  0  0  0
    6.0010    2.0950    0.0000 C   0  0  0  0  0  0  0  0  0  0  0  0
    4.2690    2.0950    0.0000 C   0  0  0  0  0  0  0  0  0  0  0  0
    5.1350   -1.4050    0.0000 C   0  0  0  0  0  0  0  0  0  0  0  0
    3.4030   -2.4050    0.0000 C   0  0  0  0  0  0  0  0  0  0  0  0
    4.2690    3.0950    0.0000 C   0  0  0  0  0  0  0  0  0  0  0  0
    6.0010    3.0950    0.0000 C   0  0  0  0  0  0  0  0  0  0  0  0
    5.1350   -2.4050    0.0000 C   0  0  0  0  0  0  0  0  0  0  0  0
    4.2690   -2.9050    0.0000 C   0  0  0  0  0  0  0  0  0  0  0  0
    5.1350    3.5950    0.0000 C   0  0  0  0  0  0  0  0  0  0  0  0
    5.6720    0.2850    0.0000 H   0  0  0  0  0  0  0  0  0  0  0  0
    3.7320    0.4050    0.0000 H   0  0  0  0  0  0  0  0  0  0  0  0
    2.8660   -1.0950    0.0000 H   0  0  0  0  0  0  0  0  0  0  0  0
    6.5380    1.7850    0.0000 H   0  0  0  0  0  0  0  0  0  0  0  0
    3.7320    1.7850    0.0000 H   0  0  0  0  0  0  0  0  0  0  0  0
    5.6720   -1.0950    0.0000 H   0  0  0  0  0  0  0  0  0  0  0  0
    5.6720   -2.7150    0.0000 H   0  0  0  0  0  0  0  0  0  0  0  0
    5.1350    4.2150    0.0000 H   0  0  0  0  0  0  0  0  0  0  0  0
    2.0000   -2.5950    0.0000 H   0  0  0  0  0  0  0  0  0  0  0  0
    3.4030    4.2150    0.0000 H   0  0  0  0  0  0  0  0  0  0  0  0
    6.8671    4.2150    0.0000 H   0  0  0  0  0  0  0  0  0  0  0  0
    4.8059   -4.2150    0.0000 H   0  0  0  0  0  0  0  0  0  0  0  0
  1 13  1  0  0  0  0
  1 27  1  0  0  0  0
  2 14  1  0  0  0  0
  2 28  1  0  0  0  0
  3 15  1  0  0  0  0
  3 29  1  0  0  0  0
  4 17  1  0  0  0  0
  4 30  1  0  0  0  0
  5  7  1  0  0  0  0
  5 10  2  0  0  0  0
  5 11  1  0  0  0  0
  6  8  1  0  0  0  0
  6  9  2  0  0  0  0
  6 12  1  0  0  0  0
  7  8  2  0  0  0  0
  7 19  1  0  0  0  0
  8 20  1  0  0  0  0
  9 13  1  0  0  0  0
  9 21  1  0  0  0  0
 10 15  1  0  0  0  0
 10 22  1  0  0  0  0
 11 14  2  0  0  0  0
 11 23  1  0  0  0  0
 12 16  2  0  0  0  0
 12 24  1  0  0  0  0
 13 17  2  0  0  0  0
 14 18  1  0  0  0  0
 15 18  2  0  0  0  0
 16 17  1  0  0  0  0
 16 25  1  0  0  0  0
 18 26  1  0  0  0  0
M  END
> <PUBCHEM_COMPOUND_CID>
667639

> <PUBCHEM_COMPOUND_CANONICALIZED>
1

> <PUBCHEM_CACTVS_COMPLEXITY>
282

> <PUBCHEM_CACTVS_HBOND_ACCEPTOR>
4

> <PUBCHEM_CACTVS_HBOND_DONOR>
4

> <PUBCHEM_CACTVS_ROTATABLE_BOND>
2

> <PUBCHEM_CACTVS_SUBSKEYS>
AAADccBwOAAAAAAAAAAAAAAAAAAAAAAAAAAwYAAAAAAAAAABQAAAGgAACAAADASAmAAwBoAAAgCAAiBCAAACAAAgIAAIiAAGiIgJJyKCERKAcAElwBUJmAeA4BQOIAABCAAAQABAAAIQAACAAAAAAAAAAA==

> <PUBCHEM_IUPAC_OPENEYE_NAME>
4-[(E)-2-(3,5-dihydroxyphenyl)vinyl]benzene-1,2-diol

> <PUBCHEM_IUPAC_CAS_NAME>
4-[(E)-2-(3,5-dihydroxyphenyl)ethenyl]benzene-1,2-diol

> <PUBCHEM_IUPAC_NAME>
4-[(E)-2-(3,5-dihydroxyphenyl)ethenyl]benzene-1,2-diol

> <PUBCHEM_IUPAC_SYSTEMATIC_NAME>
4-[(E)-2-[3,5-bis(oxidanyl)phenyl]ethenyl]benzene-1,2-diol

> <PUBCHEM_IUPAC_TRADITIONAL_NAME>
4-[(E)-2-(3,5-dihydroxyphenyl)vinyl]pyrocatechol

> <PUBCHEM_IUPAC_INCHI>
InChI=1S/C14H12O4/c15-11-5-10(6-12(16)8-11)2-1-9-3-4-13(17)14(18)7-9/h1-8,15-18H/b2-1+

> <PUBCHEM_IUPAC_INCHIKEY>
CDRPUGZCRXZLFL-OWOJBTEDSA-N

> <PUBCHEM_XLOGP3>
2.9

> <PUBCHEM_EXACT_MASS>
244.074

> <PUBCHEM_MOLECULAR_FORMULA>
C14H12O4

> <PUBCHEM_MOLECULAR_WEIGHT>
244.246

> <PUBCHEM_OPENEYE_CAN_SMILES>
C1=CC(=C(C=C1C=CC2=CC(=CC(=C2)O)O)O)O

> <PUBCHEM_OPENEYE_ISO_SMILES>
C1=CC(=C(C=C1/C=C/C2=CC(=CC(=C2)O)O)O)O

> <PUBCHEM_CACTVS_TPSA>
80.9

> <PUBCHEM_MONOISOTOPIC_WEIGHT>
244.074

> <PUBCHEM_TOTAL_CHARGE>
0

> <PUBCHEM_HEAVY_ATOM_COUNT>
18

> <PUBCHEM_ATOM_DEF_STEREO_COUNT>
0

> <PUBCHEM_ATOM_UDEF_STEREO_COUNT>
0

> <PUBCHEM_BOND_DEF_STEREO_COUNT>
1

> <PUBCHEM_BOND_UDEF_STEREO_COUNT>
0

> <PUBCHEM_ISOTOPIC_ATOM_COUNT>
0

> <PUBCHEM_COMPONENT_COUNT>
1

> <PUBCHEM_CACTVS_TAUTO_COUNT>
85

> <PUBCHEM_COORDINATE_TYPE>
1
5
255

> <PUBCHEM_BONDANNOTATIONS>
10  15  8
11  14  8
12  16  8
13  17  8
14  18  8
15  18  8
16  17  8
5  10  8
5  11  8
6  12  8
6  9  8
9  13  8

$$$$
23645856
  -OEChem-11021605012D

 59 64  0     1  0  0  0  0  0999 V2000
    2.7673    0.9075    0.0000 O   0  0  0  0  0  0  0  0  0  0  0  0
    5.6151    2.9766    0.0000 O   0  0  0  0  0  0  0  0  0  0  0  0
    5.0274   -1.9101    0.0000 N   0  0  0  0  0  0  0  0  0  0  0  0
    8.7040   -2.0244    0.0000 N   0  0  0  0  0  0  0  0  0  0  0  0
    4.0274    2.1676    0.0000 N   0  0  0  0  0  0  0  0  0  0  0  0
    7.5879   -0.0408    0.0000 N   0  0  0  0  0  0  0  0  0  0  0  0
    7.0547   -1.4955    0.0000 C   0  0  3  0  0  0  0  0  0  0  0  0
    6.3518   -0.7268    0.0000 C   0  0  0  0  0  0  0  0  0  0  0  0
    6.7328   -2.4861    0.0000 C   0  0  0  0  0  0  0  0  0  0  0  0
    5.3364   -0.9590    0.0000 C   0  0  0  0  0  0  0  0  0  0  0  0
    5.7123   -2.6948    0.0000 C   0  0  0  0  0  0  0  0  0  0  0  0
    4.5274   -0.3713    0.0000 C   0  0  0  0  0  0  0  0  0  0  0  0
    8.0321   -1.2838    0.0000 C   0  0  0  0  0  0  0  0  0  0  0  0
    4.0274   -1.9101    0.0000 C   0  0  0  0  0  0  0  0  0  0  0  0
    3.7183   -0.9590    0.0000 C   0  0  0  0  0  0  0  0  0  0  0  0
    4.5274    0.6287    0.0000 C   0  0  0  0  0  0  0  0  0  0  0  0
    3.3424   -2.6948    0.0000 C   0  0  0  0  0  0  0  0  0  0  0  0
    2.7029   -0.7268    0.0000 C   0  0  0  0  0  0  0  0  0  0  0  0
    5.3364    1.2165    0.0000 C   0  0  0  0  0  0  0  0  0  0  0  0
    3.7183    1.2165    0.0000 C   0  0  0  0  0  0  0  0  0  0  0  0
    2.3219   -2.4861    0.0000 C   0  0  0  0  0  0  0  0  0  0  0  0
    2.0000   -1.4955    0.0000 C   0  0  0  0  0  0  0  0  0  0  0  0
    9.6814   -1.8127    0.0000 C   0  0  0  0  0  0  0  0  0  0  0  0
    8.3987   -2.9766    0.0000 C   0  0  0  0  0  0  0  0  0  0  0  0
    6.2874    0.9075    0.0000 C   0  0  0  0  0  0  0  0  0  0  0  0
    5.0274    2.1676    0.0000 C   0  0  0  0  0  0  0  0  0  0  0  0
    7.0912    1.4925    0.0000 C   0  0  0  0  0  0  0  0  0  0  0  0
    6.5938   -0.0382    0.0000 C   0  0  0  0  0  0  0  0  0  0  0  0
    7.8992    0.9033    0.0000 C   0  0  0  0  0  0  0  0  0  0  0  0
    7.1974    2.4868    0.0000 C   0  0  0  0  0  0  0  0  0  0  0  0
    8.8134    1.3085    0.0000 C   0  0  0  0  0  0  0  0  0  0  0  0
    8.1116    2.8920    0.0000 C   0  0  0  0  0  0  0  0  0  0  0  0
    8.9197    2.3028    0.0000 C   0  0  0  0  0  0  0  0  0  0  0  0
    7.4705   -1.9554    0.0000 H   0  0  0  0  0  0  0  0  0  0  0  0
    6.8742   -0.3929    0.0000 H   0  0  0  0  0  0  0  0  0  0  0  0
    6.1122   -0.1550    0.0000 H   0  0  0  0  0  0  0  0  0  0  0  0
    6.7513   -3.1059    0.0000 H   0  0  0  0  0  0  0  0  0  0  0  0
    7.3466   -2.5740    0.0000 H   0  0  0  0  0  0  0  0  0  0  0  0
    5.1824   -3.0166    0.0000 H   0  0  0  0  0  0  0  0  0  0  0  0
    5.9387   -3.2720    0.0000 H   0  0  0  0  0  0  0  0  0  0  0  0
    8.5566   -0.9532    0.0000 H   0  0  0  0  0  0  0  0  0  0  0  0
    7.7976   -0.7098    0.0000 H   0  0  0  0  0  0  0  0  0  0  0  0
    3.5408   -3.2822    0.0000 H   0  0  0  0  0  0  0  0  0  0  0  0
    2.5182   -0.1350    0.0000 H   0  0  0  0  0  0  0  0  0  0  0  0
    1.9088   -2.9485    0.0000 H   0  0  0  0  0  0  0  0  0  0  0  0
    1.3940   -1.3642    0.0000 H   0  0  0  0  0  0  0  0  0  0  0  0
    9.8126   -2.4186    0.0000 H   0  0  0  0  0  0  0  0  0  0  0  0
   10.2873   -1.6814    0.0000 H   0  0  0  0  0  0  0  0  0  0  0  0
    9.5502   -1.2067    0.0000 H   0  0  0  0  0  0  0  0  0  0  0  0
    7.8083   -2.7873    0.0000 H   0  0  0  0  0  0  0  0  0  0  0  0
    8.2094   -3.5670    0.0000 H   0  0  0  0  0  0  0  0  0  0  0  0
    8.9891   -3.1659    0.0000 H   0  0  0  0  0  0  0  0  0  0  0  0
    3.6629    2.6692    0.0000 H   0  0  0  0  0  0  0  0  0  0  0  0
    6.2285   -0.5391    0.0000 H   0  0  0  0  0  0  0  0  0  0  0  0
    7.9506   -0.5436    0.0000 H   0  0  0  0  0  0  0  0  0  0  0  0
    6.6964    2.8521    0.0000 H   0  0  0  0  0  0  0  0  0  0  0  0
    9.3144    0.9432    0.0000 H   0  0  0  0  0  0  0  0  0  0  0  0
    8.1775    3.5085    0.0000 H   0  0  0  0  0  0  0  0  0  0  0  0
    9.4865    2.5540    0.0000 H   0  0  0  0  0  0  0  0  0  0  0  0
  1 20  2  0  0  0  0
  2 26  2  0  0  0  0
  3 10  1  0  0  0  0
  3 11  1  0  0  0  0
  3 14  1  0  0  0  0
  4 13  1  0  0  0  0
  4 23  1  0  0  0  0
  4 24  1  0  0  0  0
  5 20  1  0  0  0  0
  5 26  1  0  0  0  0
  5 53  1  0  0  0  0
  6 28  1  0  0  0  0
  6 29  1  0  0  0  0
  6 55  1  0  0  0  0
  7  8  1  0  0  0  0
  7  9  1  0  0  0  0
  7 13  1  0  0  0  0
  7 34  1  0  0  0  0
  8 10  1  0  0  0  0
  8 35  1  0  0  0  0
  8 36  1  0  0  0  0
  9 11  1  0  0  0  0
  9 37  1  0  0  0  0
  9 38  1  0  0  0  0
 10 12  2  0  0  0  0
 11 39  1  0  0  0  0
 11 40  1  0  0  0  0
 12 15  1  0  0  0  0
 12 16  1  0  0  0  0
 13 41  1  0  0  0  0
 13 42  1  0  0  0  0
 14 15  1  0  0  0  0
 14 17  2  0  0  0  0
 15 18  2  0  0  0  0
 16 19  2  0  0  0  0
 16 20  1  0  0  0  0
 17 21  1  0  0  0  0
 17 43  1  0  0  0  0
 18 22  1  0  0  0  0
 18 44  1  0  0  0  0
 19 25  1  0  0  0  0
 19 26  1  0  0  0  0
 21 22  2  0  0  0  0
 21 45  1  0  0  0  0
 22 46  1  0  0  0  0
 23 47  1  0  0  0  0
 23 48  1  0  0  0  0
 23 49  1  0  0  0  0
 24 50  1  0  0  0  0
 24 51  1  0  0  0  0
 24 52  1  0  0  0  0
 25 27  1  0  0  0  0
 25 28  2  0  0  0  0
 27 29  1  0  0  0  0
 27 30  2  0  0  0  0
 28 54  1  0  0  0  0
 29 31  2  0  0  0  0
 30 32  1  0  0  0  0
 30 56  1  0  0  0  0
 31 33  1  0  0  0  0
 31 57  1  0  0  0  0
 32 33  2  0  0  0  0
 32 58  1  0  0  0  0
 33 59  1  0  0  0  0
M  END
> <PUBCHEM_COMPOUND_CID>
23645856

> <PUBCHEM_COMPOUND_CANONICALIZED>
1

> <PUBCHEM_CACTVS_COMPLEXITY>
838

> <PUBCHEM_CACTVS_HBOND_ACCEPTOR>
3

> <PUBCHEM_CACTVS_HBOND_DONOR>
2

> <PUBCHEM_CACTVS_ROTATABLE_BOND>
4

> <PUBCHEM_CACTVS_SUBSKEYS>
AAADceB7sAAAAAAAAAAAAAAAAAAAAWLEAAA8YIAAAAAAAFgB/gAAHgAQAAAADQjBngQ+wPPNkACoAzV3VACCgCAxAiAI2aE4ZNgIIPLAlZGEIAhglCDIyQccicCegAAAAAACAAAAAAAAAAQAAAAAAAAAAA==

> <PUBCHEM_IUPAC_OPENEYE_NAME>
3-[8-[(dimethylamino)methyl]-6,7,8,9-tetrahydropyrido[1,2-a]indol-10-yl]-4-(1H-indol-3-yl)pyrrole-2,5-dione

> <PUBCHEM_IUPAC_CAS_NAME>
3-[8-[(dimethylamino)methyl]-6,7,8,9-tetrahydropyrido[1,2-a]indol-10-yl]-4-(1H-indol-3-yl)pyrrole-2,5-dione

> <PUBCHEM_IUPAC_NAME>
3-[8-[(dimethylamino)methyl]-6,7,8,9-tetrahydropyrido[1,2-a]indol-10-yl]-4-(1H-indol-3-yl)pyrrole-2,5-dione

> <PUBCHEM_IUPAC_SYSTEMATIC_NAME>
3-[8-[(dimethylamino)methyl]-6,7,8,9-tetrahydropyrido[1,2-a]indol-10-yl]-4-(1H-indol-3-yl)pyrrole-2,5-dione

> <PUBCHEM_IUPAC_TRADITIONAL_NAME>
3-[8-[(dimethylamino)methyl]-6,7,8,9-tetrahydropyrid[1,2-a]indol-10-yl]-4-(1H-indol-3-yl)-3-pyrroline-2,5-quinone

> <PUBCHEM_IUPAC_INCHI>
InChI=1S/C27H26N4O2/c1-30(2)15-16-11-12-31-21-10-6-4-8-18(21)23(22(31)13-16)25-24(26(32)29-27(25)33)19-14-28-20-9-5-3-7-17(19)20/h3-10,14,16,28H,11-13,15H2,1-2H3,(H,29,32,33)

> <PUBCHEM_IUPAC_INCHIKEY>
KAUXQCPPAWLYAB-UHFFFAOYSA-N

> <PUBCHEM_XLOGP3_AA>
3.4

> <PUBCHEM_EXACT_MASS>
438.206

> <PUBCHEM_MOLECULAR_FORMULA>
C27H26N4O2

> <PUBCHEM_MOLECULAR_WEIGHT>
438.531

> <PUBCHEM_OPENEYE_CAN_SMILES>
CN(C)CC1CCN2C(=C(C3=CC=CC=C32)C4=C(C(=O)NC4=O)C5=CNC6=CC=CC=C65)C1

> <PUBCHEM_OPENEYE_ISO_SMILES>
CN(C)CC1CCN2C(=C(C3=CC=CC=C32)C4=C(C(=O)NC4=O)C5=CNC6=CC=CC=C65)C1

> <PUBCHEM_CACTVS_TPSA>
70.1

> <PUBCHEM_MONOISOTOPIC_WEIGHT>
438.206

> <PUBCHEM_TOTAL_CHARGE>
0

> <PUBCHEM_HEAVY_ATOM_COUNT>
33

> <PUBCHEM_ATOM_DEF_STEREO_COUNT>
0

> <PUBCHEM_ATOM_UDEF_STEREO_COUNT>
1

> <PUBCHEM_BOND_DEF_STEREO_COUNT>
0

> <PUBCHEM_BOND_UDEF_STEREO_COUNT>
0

> <PUBCHEM_ISOTOPIC_ATOM_COUNT>
0

> <PUBCHEM_COMPONENT_COUNT>
1

> <PUBCHEM_CACTVS_TAUTO_COUNT>
48

> <PUBCHEM_COORDINATE_TYPE>
1
5
255

> <PUBCHEM_BONDANNOTATIONS>
10  12  8
12  15  8
14  15  8
14  17  8
15  18  8
17  21  8
18  22  8
21  22  8
25  27  8
25  28  8
27  29  8
27  30  8
29  31  8
3  10  8
3  14  8
30  32  8
31  33  8
32  33  8
6  28  8
6  29  8
7  13  3

$$$$
5280961
  -OEChem-11021605012D

 30 32  0     0  0  0  0  0  0999 V2000
    6.8671    1.4279    0.0000 O   0  0  0  0  0  0  0  0  0  0  0  0
    8.6155   -1.6067    0.0000 O   0  0  0  0  0  0  0  0  0  0  0  0
    6.8671   -1.5721    0.0000 O   0  0  0  0  0  0  0  0  0  0  0  0
   10.3972    1.4521    0.0000 O   0  0  0  0  0  0  0  0  0  0  0  0
    2.5369   -2.0721    0.0000 O   0  0  0  0  0  0  0  0  0  0  0  0
    7.7331   -0.0721    0.0000 C   0  0  0  0  0  0  0  0  0  0  0  0
    6.0010   -0.0721    0.0000 C   0  0  0  0  0  0  0  0  0  0  0  0
    7.7331    0.9279    0.0000 C   0  0  0  0  0  0  0  0  0  0  0  0
    6.8671   -0.5721    0.0000 C   0  0  0  0  0  0  0  0  0  0  0  0
    5.1350   -0.5721    0.0000 C   0  0  0  0  0  0  0  0  0  0  0  0
    8.6270   -0.6067    0.0000 C   0  0  0  0  0  0  0  0  0  0  0  0
    6.0010    0.9279    0.0000 C   0  0  0  0  0  0  0  0  0  0  0  0
    8.6270    1.4626    0.0000 C   0  0  0  0  0  0  0  0  0  0  0  0
    9.5331   -0.0929    0.0000 C   0  0  0  0  0  0  0  0  0  0  0  0
    9.5331    0.9487    0.0000 C   0  0  0  0  0  0  0  0  0  0  0  0
    4.2690   -0.0721    0.0000 C   0  0  0  0  0  0  0  0  0  0  0  0
    5.1350   -1.5721    0.0000 C   0  0  0  0  0  0  0  0  0  0  0  0
    3.4030   -0.5721    0.0000 C   0  0  0  0  0  0  0  0  0  0  0  0
    4.2690   -2.0721    0.0000 C   0  0  0  0  0  0  0  0  0  0  0  0
    3.4030   -1.5721    0.0000 C   0  0  0  0  0  0  0  0  0  0  0  0
    5.4641    1.2379    0.0000 H   0  0  0  0  0  0  0  0  0  0  0  0
    8.6199    2.0826    0.0000 H   0  0  0  0  0  0  0  0  0  0  0  0
   10.0688   -0.4050    0.0000 H   0  0  0  0  0  0  0  0  0  0  0  0
    4.2690    0.5479    0.0000 H   0  0  0  0  0  0  0  0  0  0  0  0
    5.6720   -1.8821    0.0000 H   0  0  0  0  0  0  0  0  0  0  0  0
    2.8660   -0.2621    0.0000 H   0  0  0  0  0  0  0  0  0  0  0  0
    4.2690   -2.6921    0.0000 H   0  0  0  0  0  0  0  0  0  0  0  0
    9.1488   -1.9229    0.0000 H   0  0  0  0  0  0  0  0  0  0  0  0
   10.3948    2.0721    0.0000 H   0  0  0  0  0  0  0  0  0  0  0  0
    2.0000   -1.7621    0.0000 H   0  0  0  0  0  0  0  0  0  0  0  0
  1  8  1  0  0  0  0
  1 12  1  0  0  0  0
  2 11  1  0  0  0  0
  2 28  1  0  0  0  0
  3  9  2  0  0  0  0
  4 15  1  0  0  0  0
  4 29  1  0  0  0  0
  5 20  1  0  0  0  0
  5 30  1  0  0  0  0
  6  8  1  0  0  0  0
  6  9  1  0  0  0  0
  6 11  2  0  0  0  0
  7  9  1  0  0  0  0
  7 10  1  0  0  0  0
  7 12  2  0  0  0  0
  8 13  2  0  0  0  0
 10 16  2  0  0  0  0
 10 17  1  0  0  0  0
 11 14  1  0  0  0  0
 12 21  1  0  0  0  0
 13 15  1  0  0  0  0
 13 22  1  0  0  0  0
 14 15  2  0  0  0  0
 14 23  1  0  0  0  0
 16 18  1  0  0  0  0
 16 24  1  0  0  0  0
 17 19  2  0  0  0  0
 17 25  1  0  0  0  0
 18 20  2  0  0  0  0
 18 26  1  0  0  0  0
 19 20  1  0  0  0  0
 19 27  1  0  0  0  0
M  END
> <PUBCHEM_COMPOUND_CID>
5280961

> <PUBCHEM_COMPOUND_CANONICALIZED>
1

> <PUBCHEM_CACTVS_COMPLEXITY>
411

> <PUBCHEM_CACTVS_HBOND_ACCEPTOR>
5

> <PUBCHEM_CACTVS_HBOND_DONOR>
3

> <PUBCHEM_CACTVS_ROTATABLE_BOND>
1

> <PUBCHEM_CACTVS_SUBSKEYS>
AAADccBwOAAAAAAAAAAAAAAAAAAAAAAAAAAwYIAAAAAAAACBQAAAGgAACAAADASgmAIwBoAABgCIAqBSAAACCAAkIAAIiAEGCMgMJzaGNRqAcWAl4BUIuYeI7PzOIAAACAAIAABAAAAQABAAAAAAAAAAAA==

> <PUBCHEM_IUPAC_OPENEYE_NAME>
5,7-dihydroxy-3-(4-hydroxyphenyl)chromen-4-one

> <PUBCHEM_IUPAC_CAS_NAME>
5,7-dihydroxy-3-(4-hydroxyphenyl)-1-benzopyran-4-one

> <PUBCHEM_IUPAC_NAME>
5,7-dihydroxy-3-(4-hydroxyphenyl)chromen-4-one

> <PUBCHEM_IUPAC_SYSTEMATIC_NAME>
3-(4-hydroxyphenyl)-5,7-bis(oxidanyl)chromen-4-one

> <PUBCHEM_IUPAC_TRADITIONAL_NAME>
5,7-dihydroxy-3-(4-hydroxyphenyl)chromone

> <PUBCHEM_IUPAC_INCHI>
InChI=1S/C15H10O5/c16-9-3-1-8(2-4-9)11-7-20-13-6-10(17)5-12(18)14(13)15(11)19/h1-7,16-18H

> <PUBCHEM_IUPAC_INCHIKEY>
TZBJGXHYKVUXJN-UHFFFAOYSA-N

> <PUBCHEM_XLOGP3_AA>
2.7

> <PUBCHEM_EXACT_MASS>
270.053

> <PUBCHEM_MOLECULAR_FORMULA>
C15H10O5

> <PUBCHEM_MOLECULAR_WEIGHT>
270.24

> <PUBCHEM_OPENEYE_CAN_SMILES>
C1=CC(=CC=C1C2=COC3=CC(=CC(=C3C2=O)O)O)O

> <PUBCHEM_OPENEYE_ISO_SMILES>
C1=CC(=CC=C1C2=COC3=CC(=CC(=C3C2=O)O)O)O

> <PUBCHEM_CACTVS_TPSA>
87

> <PUBCHEM_MONOISOTOPIC_WEIGHT>
270.053

> <PUBCHEM_TOTAL_CHARGE>
0

> <PUBCHEM_HEAVY_ATOM_COUNT>
20

> <PUBCHEM_ATOM_DEF_STEREO_COUNT>
0

> <PUBCHEM_ATOM_UDEF_STEREO_COUNT>
0

> <PUBCHEM_BOND_DEF_STEREO_COUNT>
0

> <PUBCHEM_BOND_UDEF_STEREO_COUNT>
0

> <PUBCHEM_ISOTOPIC_ATOM_COUNT>
0

> <PUBCHEM_COMPONENT_COUNT>
1

> <PUBCHEM_CACTVS_TAUTO_COUNT>
24

> <PUBCHEM_COORDINATE_TYPE>
1
5
255

> <PUBCHEM_BONDANNOTATIONS>
1  12  8
1  8  8
10  16  8
10  17  8
11  14  8
13  15  8
14  15  8
16  18  8
17  19  8
18  20  8
19  20  8
6  11  8
6  8  8
6  9  8
7  12  8
7  9  8
8  13  8

$$$$
9549295
  -OEChem-11021605012D

 50 52  0     0  0  0  0  0  0999 V2000
    8.9443    0.9725    0.0000 Cl  0  0  0  0  0  0  0  0  0  0  0  0
    5.4804    1.0125    0.0000 O   0  0  0  0  0  0  0  0  0  0  0  0
    2.0000    2.0471    0.0000 O   0  0  0  0  0  0  0  0  0  0  0  0
    2.0000    4.0471    0.0000 O   0  0  0  0  0  0  0  0  0  0  0  0
    8.0379   -2.5173    0.0000 O   0  0  0  0  0  0  0  0  0  0  0  0
    9.7698   -2.5373    0.0000 N   0  0  0  0  0  0  0  0  0  0  0  0
    8.9212   -1.0274    0.0000 N   0  0  0  0  0  0  0  0  0  0  0  0
    5.4920    4.0818    0.0000 N   0  0  0  0  0  0  0  0  0  0  0  0
    6.3981    2.5263    0.0000 N   0  0  0  0  0  0  0  0  0  0  0  0
    4.5981    2.5471    0.0000 C   0  0  0  0  0  0  0  0  0  0  0  0
    4.5981    3.5471    0.0000 C   0  0  0  0  0  0  0  0  0  0  0  0
    3.7320    2.0471    0.0000 C   0  0  0  0  0  0  0  0  0  0  0  0
    5.4920    2.0125    0.0000 C   0  0  0  0  0  0  0  0  0  0  0  0
    9.7583   -3.5372    0.0000 C   0  0  0  0  0  0  0  0  0  0  0  0
    2.8660    2.5471    0.0000 C   0  0  0  0  0  0  0  0  0  0  0  0
    2.8660    3.5471    0.0000 C   0  0  0  0  0  0  0  0  0  0  0  0
    3.7320    4.0471    0.0000 C   0  0  0  0  0  0  0  0  0  0  0  0
   10.6184   -4.0472    0.0000 C   0  0  0  0  0  0  0  0  0  0  0  0
    6.3406    0.5026    0.0000 C   0  0  0  0  0  0  0  0  0  0  0  0
    8.0610   -0.5174    0.0000 C   0  0  0  0  0  0  0  0  0  0  0  0
    7.2124    0.9925    0.0000 C   0  0  0  0  0  0  0  0  0  0  0  0
    6.3291   -0.4974    0.0000 C   0  0  0  0  0  0  0  0  0  0  0  0
    8.0726    0.4825    0.0000 C   0  0  0  0  0  0  0  0  0  0  0  0
    7.1893   -1.0074    0.0000 C   0  0  0  0  0  0  0  0  0  0  0  0
    8.9096   -2.0273    0.0000 C   0  0  0  0  0  0  0  0  0  0  0  0
   10.6069   -5.0471    0.0000 C   0  0  0  0  0  0  0  0  0  0  0  0
    6.3981    3.5680    0.0000 C   0  0  0  0  0  0  0  0  0  0  0  0
    2.0000    1.0471    0.0000 C   0  0  0  0  0  0  0  0  0  0  0  0
    2.0000    5.0471    0.0000 C   0  0  0  0  0  0  0  0  0  0  0  0
    3.7320    1.4271    0.0000 H   0  0  0  0  0  0  0  0  0  0  0  0
    9.1490   -3.4225    0.0000 H   0  0  0  0  0  0  0  0  0  0  0  0
    9.5395   -4.1173    0.0000 H   0  0  0  0  0  0  0  0  0  0  0  0
   11.2277   -4.1619    0.0000 H   0  0  0  0  0  0  0  0  0  0  0  0
   10.8372   -3.4671    0.0000 H   0  0  0  0  0  0  0  0  0  0  0  0
    3.7320    4.6671    0.0000 H   0  0  0  0  0  0  0  0  0  0  0  0
   10.3103   -2.2335    0.0000 H   0  0  0  0  0  0  0  0  0  0  0  0
    7.2196    1.6125    0.0000 H   0  0  0  0  0  0  0  0  0  0  0  0
    5.7886   -0.8011    0.0000 H   0  0  0  0  0  0  0  0  0  0  0  0
    7.1821   -1.6273    0.0000 H   0  0  0  0  0  0  0  0  0  0  0  0
    9.4617   -0.7236    0.0000 H   0  0  0  0  0  0  0  0  0  0  0  0
    9.9869   -5.0400    0.0000 H   0  0  0  0  0  0  0  0  0  0  0  0
   10.5997   -5.6671    0.0000 H   0  0  0  0  0  0  0  0  0  0  0  0
   11.2268   -5.0543    0.0000 H   0  0  0  0  0  0  0  0  0  0  0  0
    6.9338    3.8800    0.0000 H   0  0  0  0  0  0  0  0  0  0  0  0
    1.3800    1.0471    0.0000 H   0  0  0  0  0  0  0  0  0  0  0  0
    2.0000    0.4271    0.0000 H   0  0  0  0  0  0  0  0  0  0  0  0
    2.6200    1.0471    0.0000 H   0  0  0  0  0  0  0  0  0  0  0  0
    2.6200    5.0471    0.0000 H   0  0  0  0  0  0  0  0  0  0  0  0
    2.0000    5.6671    0.0000 H   0  0  0  0  0  0  0  0  0  0  0  0
    1.3800    5.0471    0.0000 H   0  0  0  0  0  0  0  0  0  0  0  0
  1 23  1  0  0  0  0
  2 13  1  0  0  0  0
  2 19  1  0  0  0  0
  3 15  1  0  0  0  0
  3 28  1  0  0  0  0
  4 16  1  0  0  0  0
  4 29  1  0  0  0  0
  5 25  2  0  0  0  0
  6 14  1  0  0  0  0
  6 25  1  0  0  0  0
  6 36  1  0  0  0  0
  7 20  1  0  0  0  0
  7 25  1  0  0  0  0
  7 40  1  0  0  0  0
  8 11  1  0  0  0  0
  8 27  2  0  0  0  0
  9 13  2  0  0  0  0
  9 27  1  0  0  0  0
 10 11  1  0  0  0  0
 10 12  2  0  0  0  0
 10 13  1  0  0  0  0
 11 17  2  0  0  0  0
 12 15  1  0  0  0  0
 12 30  1  0  0  0  0
 14 18  1  0  0  0  0
 14 31  1  0  0  0  0
 14 32  1  0  0  0  0
 15 16  2  0  0  0  0
 16 17  1  0  0  0  0
 17 35  1  0  0  0  0
 18 26  1  0  0  0  0
 18 33  1  0  0  0  0
 18 34  1  0  0  0  0
 19 21  2  0  0  0  0
 19 22  1  0  0  0  0
 20 23  2  0  0  0  0
 20 24  1  0  0  0  0
 21 23  1  0  0  0  0
 21 37  1  0  0  0  0
 22 24  2  0  0  0  0
 22 38  1  0  0  0  0
 24 39  1  0  0  0  0
 26 41  1  0  0  0  0
 26 42  1  0  0  0  0
 26 43  1  0  0  0  0
 27 44  1  0  0  0  0
 28 45  1  0  0  0  0
 28 46  1  0  0  0  0
 28 47  1  0  0  0  0
 29 48  1  0  0  0  0
 29 49  1  0  0  0  0
 29 50  1  0  0  0  0
M  END
> <PUBCHEM_COMPOUND_CID>
9549295

> <PUBCHEM_COMPOUND_CANONICALIZED>
1

> <PUBCHEM_CACTVS_COMPLEXITY>
529

> <PUBCHEM_CACTVS_HBOND_ACCEPTOR>
6

> <PUBCHEM_CACTVS_HBOND_DONOR>
2

> <PUBCHEM_CACTVS_ROTATABLE_BOND>
7

> <PUBCHEM_CACTVS_SUBSKEYS>
AAADceB7uAAEAAAAAAAAAAAAAAAAAAAAAAA8YIAAAAAAAACx9AAAHgIQAAAADA7BniY31vbIFACoAyRjdACCiCkxJ6AJ2KA+7piNLqLF+9vOPCru1htK6Cfw8D8OIEABAwACQBBAgAIGAASAIAAAAAAAAA==

> <PUBCHEM_IUPAC_OPENEYE_NAME>
1-[2-chloro-4-(6,7-dimethoxyquinazolin-4-yl)oxy-phenyl]-3-propyl-urea

> <PUBCHEM_IUPAC_CAS_NAME>
1-[2-chloro-4-[(6,7-dimethoxy-4-quinazolinyl)oxy]phenyl]-3-propylurea

> <PUBCHEM_IUPAC_NAME>
1-[2-chloro-4-(6,7-dimethoxyquinazolin-4-yl)oxyphenyl]-3-propylurea

> <PUBCHEM_IUPAC_SYSTEMATIC_NAME>
1-[2-chloranyl-4-(6,7-dimethoxyquinazolin-4-yl)oxy-phenyl]-3-propyl-urea

> <PUBCHEM_IUPAC_TRADITIONAL_NAME>
1-[2-chloro-4-(6,7-dimethoxyquinazolin-4-yl)oxy-phenyl]-3-propyl-urea

> <PUBCHEM_IUPAC_INCHI>
InChI=1S/C20H21ClN4O4/c1-4-7-22-20(26)25-15-6-5-12(8-14(15)21)29-19-13-9-17(27-2)18(28-3)10-16(13)23-11-24-19/h5-6,8-11H,4,7H2,1-3H3,(H2,22,25,26)

> <PUBCHEM_IUPAC_INCHIKEY>
VPBYZLCHOKSGRX-UHFFFAOYSA-N

> <PUBCHEM_XLOGP3_AA>
3.9

> <PUBCHEM_EXACT_MASS>
416.125

> <PUBCHEM_MOLECULAR_FORMULA>
C20H21ClN4O4

> <PUBCHEM_MOLECULAR_WEIGHT>
416.862

> <PUBCHEM_OPENEYE_CAN_SMILES>
CCCNC(=O)NC1=C(C=C(C=C1)OC2=NC=NC3=CC(=C(C=C32)OC)OC)Cl

> <PUBCHEM_OPENEYE_ISO_SMILES>
CCCNC(=O)NC1=C(C=C(C=C1)OC2=NC=NC3=CC(=C(C=C32)OC)OC)Cl

> <PUBCHEM_CACTVS_TPSA>
94.6

> <PUBCHEM_MONOISOTOPIC_WEIGHT>
416.125

> <PUBCHEM_TOTAL_CHARGE>
0

> <PUBCHEM_HEAVY_ATOM_COUNT>
29

> <PUBCHEM_ATOM_DEF_STEREO_COUNT>
0

> <PUBCHEM_ATOM_UDEF_STEREO_COUNT>
0

> <PUBCHEM_BOND_DEF_STEREO_COUNT>
0

> <PUBCHEM_BOND_UDEF_STEREO_COUNT>
0

> <PUBCHEM_ISOTOPIC_ATOM_COUNT>
0

> <PUBCHEM_COMPONENT_COUNT>
1

> <PUBCHEM_CACTVS_TAUTO_COUNT>
3

> <PUBCHEM_COORDINATE_TYPE>
1
5
255

> <PUBCHEM_BONDANNOTATIONS>
10  11  8
10  12  8
10  13  8
11  17  8
12  15  8
15  16  8
16  17  8
19  21  8
19  22  8
20  23  8
20  24  8
21  23  8
22  24  8
8  11  8
8  27  8
9  13  8
9  27  8

$$$$
5328771
  -OEChem-11021605012D

 33 34  0     0  0  0  0  0  0999 V2000
    2.5369   -3.3450    0.0000 O   0  0  0  0  0  0  0  0  0  0  0  0
    4.2690   -4.3450    0.0000 O   0  0  0  0  0  0  0  0  0  0  0  0
    4.2690    1.6550    0.0000 O   0  0  0  0  0  0  0  0  0  0  0  0
    6.0010    1.6550    0.0000 N   0  0  0  0  0  0  0  0  0  0  0  0
    6.8671   -0.8450    0.0000 N   0  0  0  0  0  0  0  0  0  0  0  0
    4.2690   -1.3450    0.0000 C   0  0  0  0  0  0  0  0  0  0  0  0
    3.4030   -1.8450    0.0000 C   0  0  0  0  0  0  0  0  0  0  0  0
    4.2690   -0.3450    0.0000 C   0  0  0  0  0  0  0  0  0  0  0  0
    5.1350   -1.8450    0.0000 C   0  0  0  0  0  0  0  0  0  0  0  0
    6.0010    2.6550    0.0000 C   0  0  0  0  0  0  0  0  0  0  0  0
    3.4030   -2.8450    0.0000 C   0  0  0  0  0  0  0  0  0  0  0  0
    5.1350    0.1550    0.0000 C   0  0  0  0  0  0  0  0  0  0  0  0
    4.2690   -3.3450    0.0000 C   0  0  0  0  0  0  0  0  0  0  0  0
    5.1350   -2.8450    0.0000 C   0  0  0  0  0  0  0  0  0  0  0  0
    5.1350    1.1550    0.0000 C   0  0  0  0  0  0  0  0  0  0  0  0
    6.8671    3.1550    0.0000 C   0  0  0  0  0  0  0  0  0  0  0  0
    5.1350    3.1550    0.0000 C   0  0  0  0  0  0  0  0  0  0  0  0
    6.8671    4.1550    0.0000 C   0  0  0  0  0  0  0  0  0  0  0  0
    5.1350    4.1550    0.0000 C   0  0  0  0  0  0  0  0  0  0  0  0
    6.0010    4.6550    0.0000 C   0  0  0  0  0  0  0  0  0  0  0  0
    6.0010   -0.3450    0.0000 C   0  0  0  0  0  0  0  0  0  0  0  0
    2.8660   -1.5350    0.0000 H   0  0  0  0  0  0  0  0  0  0  0  0
    3.7320   -0.0350    0.0000 H   0  0  0  0  0  0  0  0  0  0  0  0
    5.6720   -1.5350    0.0000 H   0  0  0  0  0  0  0  0  0  0  0  0
    5.6720   -3.1550    0.0000 H   0  0  0  0  0  0  0  0  0  0  0  0
    6.5380    1.3450    0.0000 H   0  0  0  0  0  0  0  0  0  0  0  0
    7.4040    2.8450    0.0000 H   0  0  0  0  0  0  0  0  0  0  0  0
    4.5981    2.8450    0.0000 H   0  0  0  0  0  0  0  0  0  0  0  0
    7.4040    4.4650    0.0000 H   0  0  0  0  0  0  0  0  0  0  0  0
    4.5981    4.4650    0.0000 H   0  0  0  0  0  0  0  0  0  0  0  0
    6.0010    5.2750    0.0000 H   0  0  0  0  0  0  0  0  0  0  0  0
    2.0000   -3.0350    0.0000 H   0  0  0  0  0  0  0  0  0  0  0  0
    4.8059   -4.6550    0.0000 H   0  0  0  0  0  0  0  0  0  0  0  0
  1 11  1  0  0  0  0
  1 32  1  0  0  0  0
  2 13  1  0  0  0  0
  2 33  1  0  0  0  0
  3 15  2  0  0  0  0
  4 10  1  0  0  0  0
  4 15  1  0  0  0  0
  4 26  1  0  0  0  0
  5 21  3  0  0  0  0
  6  7  2  0  0  0  0
  6  8  1  0  0  0  0
  6  9  1  0  0  0  0
  7 11  1  0  0  0  0
  7 22  1  0  0  0  0
  8 12  2  0  0  0  0
  8 23  1  0  0  0  0
  9 14  2  0  0  0  0
  9 24  1  0  0  0  0
 10 16  2  0  0  0  0
 10 17  1  0  0  0  0
 11 13  2  0  0  0  0
 12 15  1  0  0  0  0
 12 21  1  0  0  0  0
 13 14  1  0  0  0  0
 14 25  1  0  0  0  0
 16 18  1  0  0  0  0
 16 27  1  0  0  0  0
 17 19  2  0  0  0  0
 17 28  1  0  0  0  0
 18 20  2  0  0  0  0
 18 29  1  0  0  0  0
 19 20  1  0  0  0  0
 19 30  1  0  0  0  0
 20 31  1  0  0  0  0
M  END
> <PUBCHEM_COMPOUND_CID>
5328771

> <PUBCHEM_COMPOUND_CANONICALIZED>
1

> <PUBCHEM_CACTVS_COMPLEXITY>
446

> <PUBCHEM_CACTVS_HBOND_ACCEPTOR>
4

> <PUBCHEM_CACTVS_HBOND_DONOR>
3

> <PUBCHEM_CACTVS_ROTATABLE_BOND>
3

> <PUBCHEM_CACTVS_SUBSKEYS>
AAADccB7MAAAAAAAAAAAAAAAAAAAAAAAAAAwYAAAAAAAAAABQAAAHgAQCAAADAyBmAAwxoLAAgCYBiVSUACiAAAhIgAIiAEG7MgJpiLCkZOEcAlk1BHJ2YeQwBAOIAABAAAAQABAAAIAAACAAAAAAAAAAA==

> <PUBCHEM_IUPAC_OPENEYE_NAME>
(E)-2-cyano-3-(3,4-dihydroxyphenyl)-N-phenyl-prop-2-enamide

> <PUBCHEM_IUPAC_CAS_NAME>
(E)-2-cyano-3-(3,4-dihydroxyphenyl)-N-phenyl-2-propenamide

> <PUBCHEM_IUPAC_NAME>
(E)-2-cyano-3-(3,4-dihydroxyphenyl)-N-phenylprop-2-enamide

> <PUBCHEM_IUPAC_SYSTEMATIC_NAME>
(E)-3-[3,4-bis(oxidanyl)phenyl]-2-cyano-N-phenyl-prop-2-enamide

> <PUBCHEM_IUPAC_TRADITIONAL_NAME>
(E)-2-cyano-3-(3,4-dihydroxyphenyl)-N-phenyl-acrylamide

> <PUBCHEM_IUPAC_INCHI>
InChI=1S/C16H12N2O3/c17-10-12(8-11-6-7-14(19)15(20)9-11)16(21)18-13-4-2-1-3-5-13/h1-9,19-20H,(H,18,21)/b12-8+

> <PUBCHEM_IUPAC_INCHIKEY>
HKHOVJYOELRGMV-XYOKQWHBSA-N

> <PUBCHEM_XLOGP3>
2.7

> <PUBCHEM_EXACT_MASS>
280.085

> <PUBCHEM_MOLECULAR_FORMULA>
C16H12N2O3

> <PUBCHEM_MOLECULAR_WEIGHT>
280.283

> <PUBCHEM_OPENEYE_CAN_SMILES>
C1=CC=C(C=C1)NC(=O)C(=CC2=CC(=C(C=C2)O)O)C#N

> <PUBCHEM_OPENEYE_ISO_SMILES>
C1=CC=C(C=C1)NC(=O)/C(=C/C2=CC(=C(C=C2)O)O)/C#N

> <PUBCHEM_CACTVS_TPSA>
93.4

> <PUBCHEM_MONOISOTOPIC_WEIGHT>
280.085

> <PUBCHEM_TOTAL_CHARGE>
0

> <PUBCHEM_HEAVY_ATOM_COUNT>
21

> <PUBCHEM_ATOM_DEF_STEREO_COUNT>
0

> <PUBCHEM_ATOM_UDEF_STEREO_COUNT>
0

> <PUBCHEM_BOND_DEF_STEREO_COUNT>
1

> <PUBCHEM_BOND_UDEF_STEREO_COUNT>
0

> <PUBCHEM_ISOTOPIC_ATOM_COUNT>
0

> <PUBCHEM_COMPONENT_COUNT>
1

> <PUBCHEM_CACTVS_TAUTO_COUNT>
29

> <PUBCHEM_COORDINATE_TYPE>
1
5
255

> <PUBCHEM_BONDANNOTATIONS>
10  16  8
10  17  8
11  13  8
13  14  8
16  18  8
17  19  8
18  20  8
19  20  8
6  7  8
6  9  8
7  11  8
9  14  8

$$$$
447961
  -OEChem-11021605012D

 35 37  0     0  0  0  0  0  0999 V2000
    4.0015   -0.6857    0.0000 S   0  0  0  0  0  0  0  0  0  0  0  0
   11.9002    0.8088    0.0000 O   0  5  0  0  0  0  0  0  0  0  0  0
   11.0342   -0.6912    0.0000 O   0  0  0  0  0  0  0  0  0  0  0  0
    7.5701    0.3088    0.0000 N   0  0  0  0  0  0  0  0  0  0  0  0
    5.8381    0.3088    0.0000 N   0  0  0  0  0  0  0  0  0  0  0  0
    2.5233   -0.0276    0.0000 N   0  0  0  0  0  0  0  0  0  0  0  0
    6.7041    1.8088    0.0000 N   0  0  0  0  0  0  0  0  0  0  0  0
   11.0342    0.3088    0.0000 N   0  3  0  0  0  0  0  0  0  0  0  0
    2.6166   -1.8072    0.0000 N   0  0  0  0  0  0  0  0  0  0  0  0
    4.1060    0.3088    0.0000 C   0  0  0  0  0  0  0  0  0  0  0  0
    4.9720    0.8088    0.0000 C   0  0  0  0  0  0  0  0  0  0  0  0
    3.1925    0.7155    0.0000 C   0  0  0  0  0  0  0  0  0  0  0  0
    8.4361    0.8088    0.0000 C   0  0  0  0  0  0  0  0  0  0  0  0
    6.7041    0.8088    0.0000 C   0  0  0  0  0  0  0  0  0  0  0  0
    9.3022    0.3088    0.0000 C   0  0  0  0  0  0  0  0  0  0  0  0
    4.9720    1.8088    0.0000 C   0  0  0  0  0  0  0  0  0  0  0  0
    8.4361    1.8088    0.0000 C   0  0  0  0  0  0  0  0  0  0  0  0
   10.1682    0.8088    0.0000 C   0  0  0  0  0  0  0  0  0  0  0  0
    2.9846    1.6937    0.0000 C   0  0  0  0  0  0  0  0  0  0  0  0
    3.0233   -0.8936    0.0000 C   0  0  0  0  0  0  0  0  0  0  0  0
    9.3022    2.3088    0.0000 C   0  0  0  0  0  0  0  0  0  0  0  0
   10.1682    1.8088    0.0000 C   0  0  0  0  0  0  0  0  0  0  0  0
    5.8381    2.3088    0.0000 C   0  0  0  0  0  0  0  0  0  0  0  0
    7.5701   -0.3112    0.0000 H   0  0  0  0  0  0  0  0  0  0  0  0
    9.3022   -0.3112    0.0000 H   0  0  0  0  0  0  0  0  0  0  0  0
    4.4351    2.1188    0.0000 H   0  0  0  0  0  0  0  0  0  0  0  0
    7.8992    2.1188    0.0000 H   0  0  0  0  0  0  0  0  0  0  0  0
    3.5910    1.8226    0.0000 H   0  0  0  0  0  0  0  0  0  0  0  0
    2.8556    2.3001    0.0000 H   0  0  0  0  0  0  0  0  0  0  0  0
    2.3781    1.5648    0.0000 H   0  0  0  0  0  0  0  0  0  0  0  0
    9.3022    2.9288    0.0000 H   0  0  0  0  0  0  0  0  0  0  0  0
   10.7051    2.1188    0.0000 H   0  0  0  0  0  0  0  0  0  0  0  0
    5.8381    2.9288    0.0000 H   0  0  0  0  0  0  0  0  0  0  0  0
    2.0000   -1.8720    0.0000 H   0  0  0  0  0  0  0  0  0  0  0  0
    2.9810   -2.3088    0.0000 H   0  0  0  0  0  0  0  0  0  0  0  0
  1 10  1  0  0  0  0
  1 20  1  0  0  0  0
  2  8  1  0  0  0  0
  3  8  2  0  0  0  0
  4 13  1  0  0  0  0
  4 14  1  0  0  0  0
  4 24  1  0  0  0  0
  5 11  2  0  0  0  0
  5 14  1  0  0  0  0
  6 12  1  0  0  0  0
  6 20  2  0  0  0  0
  7 14  2  0  0  0  0
  7 23  1  0  0  0  0
  8 18  1  0  0  0  0
  9 20  1  0  0  0  0
  9 34  1  0  0  0  0
  9 35  1  0  0  0  0
 10 11  1  0  0  0  0
 10 12  2  0  0  0  0
 11 16  1  0  0  0  0
 12 19  1  0  0  0  0
 13 15  2  0  0  0  0
 13 17  1  0  0  0  0
 15 18  1  0  0  0  0
 15 25  1  0  0  0  0
 16 23  2  0  0  0  0
 16 26  1  0  0  0  0
 17 21  2  0  0  0  0
 17 27  1  0  0  0  0
 18 22  2  0  0  0  0
 19 28  1  0  0  0  0
 19 29  1  0  0  0  0
 19 30  1  0  0  0  0
 21 22  1  0  0  0  0
 21 31  1  0  0  0  0
 22 32  1  0  0  0  0
 23 33  1  0  0  0  0
M  CHG  2   2  -1   8   1
M  END
> <PUBCHEM_COMPOUND_CID>
447961

> <PUBCHEM_COMPOUND_CANONICALIZED>
1

> <PUBCHEM_CACTVS_COMPLEXITY>
423

> <PUBCHEM_CACTVS_HBOND_ACCEPTOR>
8

> <PUBCHEM_CACTVS_HBOND_DONOR>
2

> <PUBCHEM_CACTVS_ROTATABLE_BOND>
3

> <PUBCHEM_CACTVS_SUBSKEYS>
AAADccBzsABAAAAAAAAAAAAAAAAAAWAAAAA8QAAAAAAAAAAB8AAAHAQUAAAACAjBVgQ/0ZbYUAilATRnZwCC8KlxCrkp2DQ4ZJqIKKLg2dGEJAhokAJIyCcQAAAAAAAAAAQAAAAAAAAACAAAAAAAAAAAAA==

> <PUBCHEM_IUPAC_OPENEYE_NAME>
4-methyl-5-[2-(3-nitroanilino)pyrimidin-4-yl]thiazol-2-amine

> <PUBCHEM_IUPAC_CAS_NAME>
4-methyl-5-[2-(3-nitroanilino)-4-pyrimidinyl]-2-thiazolamine

> <PUBCHEM_IUPAC_NAME>
4-methyl-5-[2-(3-nitroanilino)pyrimidin-4-yl]-1,3-thiazol-2-amine

> <PUBCHEM_IUPAC_SYSTEMATIC_NAME>
4-methyl-5-[2-[(3-nitrophenyl)amino]pyrimidin-4-yl]-1,3-thiazol-2-amine

> <PUBCHEM_IUPAC_TRADITIONAL_NAME>
[4-(2-amino-4-methyl-thiazol-5-yl)pyrimidin-2-yl]-(3-nitrophenyl)amine

> <PUBCHEM_IUPAC_INCHI>
InChI=1S/C14H12N6O2S/c1-8-12(23-13(15)17-8)11-5-6-16-14(19-11)18-9-3-2-4-10(7-9)20(21)22/h2-7H,1H3,(H2,15,17)(H,16,18,19)

> <PUBCHEM_IUPAC_INCHIKEY>
DYTKVFHLKPDNRW-UHFFFAOYSA-N

> <PUBCHEM_XLOGP3_AA>
2.7

> <PUBCHEM_EXACT_MASS>
328.074

> <PUBCHEM_MOLECULAR_FORMULA>
C14H12N6O2S

> <PUBCHEM_MOLECULAR_WEIGHT>
328.35

> <PUBCHEM_OPENEYE_CAN_SMILES>
CC1=C(SC(=N1)N)C2=NC(=NC=C2)NC3=CC(=CC=C3)[N+](=O)[O-]

> <PUBCHEM_OPENEYE_ISO_SMILES>
CC1=C(SC(=N1)N)C2=NC(=NC=C2)NC3=CC(=CC=C3)[N+](=O)[O-]

> <PUBCHEM_CACTVS_TPSA>
151

> <PUBCHEM_MONOISOTOPIC_WEIGHT>
328.074

> <PUBCHEM_TOTAL_CHARGE>
0

> <PUBCHEM_HEAVY_ATOM_COUNT>
23

> <PUBCHEM_ATOM_DEF_STEREO_COUNT>
0

> <PUBCHEM_ATOM_UDEF_STEREO_COUNT>
0

> <PUBCHEM_BOND_DEF_STEREO_COUNT>
0

> <PUBCHEM_BOND_UDEF_STEREO_COUNT>
0

> <PUBCHEM_ISOTOPIC_ATOM_COUNT>
0

> <PUBCHEM_COMPONENT_COUNT>
1

> <PUBCHEM_CACTVS_TAUTO_COUNT>
23

> <PUBCHEM_COORDINATE_TYPE>
1
5
255

> <PUBCHEM_BONDANNOTATIONS>
1  10  8
1  20  8
10  12  8
11  16  8
13  15  8
13  17  8
15  18  8
16  23  8
17  21  8
18  22  8
21  22  8
5  11  8
5  14  8
6  12  8
6  20  8
7  14  8
7  23  8

$$$$
9549284
  -OEChem-11021605012D

 35 36  0     0  0  0  0  0  0999 V2000
    5.4641    0.9400    0.0000 S   0  0  0  0  0  0  0  0  0  0  0  0
    2.0000   -1.0600    0.0000 F   0  0  0  0  0  0  0  0  0  0  0  0
    2.3660   -2.4260    0.0000 F   0  0  0  0  0  0  0  0  0  0  0  0
    3.3660   -0.6940    0.0000 F   0  0  0  0  0  0  0  0  0  0  0  0
    6.3301   -0.5600    0.0000 N   0  0  0  0  0  0  0  0  0  0  0  0
    8.9282    2.9400    0.0000 N   0  0  0  0  0  0  0  0  0  0  0  0
    2.8660    0.4400    0.0000 N   0  0  0  0  0  0  0  0  0  0  0  0
    4.5981   -1.5600    0.0000 C   0  0  0  0  0  0  0  0  0  0  0  0
    3.7320   -2.0600    0.0000 C   0  0  0  0  0  0  0  0  0  0  0  0
    4.5981   -0.5600    0.0000 C   0  0  0  0  0  0  0  0  0  0  0  0
    5.4641   -2.0600    0.0000 C   0  0  0  0  0  0  0  0  0  0  0  0
    3.7320   -3.0600    0.0000 C   0  0  0  0  0  0  0  0  0  0  0  0
    2.8660   -1.5600    0.0000 C   0  0  0  0  0  0  0  0  0  0  0  0
    5.4641   -0.0600    0.0000 C   0  0  0  0  0  0  0  0  0  0  0  0
    5.4641   -3.0600    0.0000 C   0  0  0  0  0  0  0  0  0  0  0  0
    4.5981   -3.5600    0.0000 C   0  0  0  0  0  0  0  0  0  0  0  0
    6.3301    1.4400    0.0000 C   0  0  0  0  0  0  0  0  0  0  0  0
    7.1962    0.9400    0.0000 C   0  0  0  0  0  0  0  0  0  0  0  0
    6.3301    2.4400    0.0000 C   0  0  0  0  0  0  0  0  0  0  0  0
    8.0622    2.4400    0.0000 C   0  0  0  0  0  0  0  0  0  0  0  0
    8.0622    1.4400    0.0000 C   0  0  0  0  0  0  0  0  0  0  0  0
    7.1962    2.9400    0.0000 C   0  0  0  0  0  0  0  0  0  0  0  0
    3.7320   -0.0600    0.0000 C   0  0  0  0  0  0  0  0  0  0  0  0
    6.0010   -1.7500    0.0000 H   0  0  0  0  0  0  0  0  0  0  0  0
    3.1951   -3.3700    0.0000 H   0  0  0  0  0  0  0  0  0  0  0  0
    6.0010   -3.3700    0.0000 H   0  0  0  0  0  0  0  0  0  0  0  0
    4.5981   -4.1800    0.0000 H   0  0  0  0  0  0  0  0  0  0  0  0
    7.1962    0.3200    0.0000 H   0  0  0  0  0  0  0  0  0  0  0  0
    5.7932    2.7500    0.0000 H   0  0  0  0  0  0  0  0  0  0  0  0
    8.5991    1.1300    0.0000 H   0  0  0  0  0  0  0  0  0  0  0  0
    7.1962    3.5600    0.0000 H   0  0  0  0  0  0  0  0  0  0  0  0
    6.8671   -0.2500    0.0000 H   0  0  0  0  0  0  0  0  0  0  0  0
    6.3301   -1.1800    0.0000 H   0  0  0  0  0  0  0  0  0  0  0  0
    8.9282    3.5600    0.0000 H   0  0  0  0  0  0  0  0  0  0  0  0
    9.4651    2.6300    0.0000 H   0  0  0  0  0  0  0  0  0  0  0  0
  1 14  1  0  0  0  0
  1 17  1  0  0  0  0
  2 13  1  0  0  0  0
  3 13  1  0  0  0  0
  4 13  1  0  0  0  0
  5 14  1  0  0  0  0
  5 32  1  0  0  0  0
  5 33  1  0  0  0  0
  6 20  1  0  0  0  0
  6 34  1  0  0  0  0
  6 35  1  0  0  0  0
  7 23  3  0  0  0  0
  8  9  1  0  0  0  0
  8 10  1  0  0  0  0
  8 11  2  0  0  0  0
  9 12  2  0  0  0  0
  9 13  1  0  0  0  0
 10 14  2  0  0  0  0
 10 23  1  0  0  0  0
 11 15  1  0  0  0  0
 11 24  1  0  0  0  0
 12 16  1  0  0  0  0
 12 25  1  0  0  0  0
 15 16  2  0  0  0  0
 15 26  1  0  0  0  0
 16 27  1  0  0  0  0
 17 18  2  0  0  0  0
 17 19  1  0  0  0  0
 18 21  1  0  0  0  0
 18 28  1  0  0  0  0
 19 22  2  0  0  0  0
 19 29  1  0  0  0  0
 20 21  2  0  0  0  0
 20 22  1  0  0  0  0
 21 30  1  0  0  0  0
 22 31  1  0  0  0  0
M  END
> <PUBCHEM_COMPOUND_CID>
9549284

> <PUBCHEM_COMPOUND_CANONICALIZED>
1

> <PUBCHEM_CACTVS_COMPLEXITY>
487

> <PUBCHEM_CACTVS_HBOND_ACCEPTOR>
7

> <PUBCHEM_CACTVS_HBOND_DONOR>
2

> <PUBCHEM_CACTVS_ROTATABLE_BOND>
3

> <PUBCHEM_CACTVS_SUBSKEYS>
AAADccB7AYBAAAAAAAAAAAAAAAAAAAAAAAAwYAAAAAAAAAABQAAAHQQQAAAADAiBWBAwwYBAAAiQBiRCQACiAABgChAIiBgAZIgIoCKgkZGAIABgkAAIyA8QgIAOgAQAAAAQAAAACAAAACAAAAAAAAAAAA==

> <PUBCHEM_IUPAC_OPENEYE_NAME>
(Z)-3-amino-3-(4-aminophenyl)sulfanyl-2-[2-(trifluoromethyl)phenyl]prop-2-enenitrile

> <PUBCHEM_IUPAC_CAS_NAME>
(Z)-3-amino-3-[(4-aminophenyl)thio]-2-[2-(trifluoromethyl)phenyl]-2-propenenitrile

> <PUBCHEM_IUPAC_NAME>
(Z)-3-amino-3-(4-aminophenyl)sulfanyl-2-[2-(trifluoromethyl)phenyl]prop-2-enenitrile

> <PUBCHEM_IUPAC_SYSTEMATIC_NAME>
(Z)-3-(4-aminophenyl)sulfanyl-3-azanyl-2-[2-(trifluoromethyl)phenyl]prop-2-enenitrile

> <PUBCHEM_IUPAC_TRADITIONAL_NAME>
(Z)-3-amino-3-[(4-aminophenyl)thio]-2-[2-(trifluoromethyl)phenyl]acrylonitrile

> <PUBCHEM_IUPAC_INCHI>
InChI=1S/C16H12F3N3S/c17-16(18,19)14-4-2-1-3-12(14)13(9-20)15(22)23-11-7-5-10(21)6-8-11/h1-8H,21-22H2/b15-13+

> <PUBCHEM_IUPAC_INCHIKEY>
JLOXTZFYJNCPIS-FYWRMAATSA-N

> <PUBCHEM_XLOGP3_AA>
3.7

> <PUBCHEM_EXACT_MASS>
335.07

> <PUBCHEM_MOLECULAR_FORMULA>
C16H12F3N3S

> <PUBCHEM_MOLECULAR_WEIGHT>
335.348

> <PUBCHEM_OPENEYE_CAN_SMILES>
C1=CC=C(C(=C1)C(=C(N)SC2=CC=C(C=C2)N)C#N)C(F)(F)F

> <PUBCHEM_OPENEYE_ISO_SMILES>
C1=CC=C(C(=C1)/C(=C(\N)/SC2=CC=C(C=C2)N)/C#N)C(F)(F)F

> <PUBCHEM_CACTVS_TPSA>
101

> <PUBCHEM_MONOISOTOPIC_WEIGHT>
335.07

> <PUBCHEM_TOTAL_CHARGE>
0

> <PUBCHEM_HEAVY_ATOM_COUNT>
23

> <PUBCHEM_ATOM_DEF_STEREO_COUNT>
0

> <PUBCHEM_ATOM_UDEF_STEREO_COUNT>
0

> <PUBCHEM_BOND_DEF_STEREO_COUNT>
1

> <PUBCHEM_BOND_UDEF_STEREO_COUNT>
0

> <PUBCHEM_ISOTOPIC_ATOM_COUNT>
0

> <PUBCHEM_COMPONENT_COUNT>
1

> <PUBCHEM_CACTVS_TAUTO_COUNT>
2

> <PUBCHEM_COORDINATE_TYPE>
1
5
255

> <PUBCHEM_BONDANNOTATIONS>
11  15  8
12  16  8
15  16  8
17  18  8
17  19  8
18  21  8
19  22  8
20  21  8
20  22  8
8  11  8
8  9  8
9  12  8

$$$$
44450544
  -OEChem-11021605012D

 43 46  0     0  0  0  0  0  0999 V2000
    2.0000   -0.5173    0.0000 Cl  0  0  0  0  0  0  0  0  0  0  0  0
    2.0000   -2.5173    0.0000 F   0  0  0  0  0  0  0  0  0  0  0  0
    8.9942    0.4585    0.0000 N   0  0  0  0  0  0  0  0  0  0  0  0
    5.4641   -0.5173    0.0000 N   0  0  0  0  0  0  0  0  0  0  0  0
    8.1301    2.0035    0.0000 N   0  0  0  0  0  0  0  0  0  0  0  0
    5.4641    2.4827    0.0000 N   0  0  0  0  0  0  0  0  0  0  0  0
   11.5942    0.9485    0.0000 N   0  0  0  0  0  0  0  0  0  0  0  0
    2.8660   -0.0173    0.0000 N   0  0  0  0  0  0  0  0  0  0  0  0
    6.3301    0.9827    0.0000 C   0  0  0  0  0  0  0  0  0  0  0  0
    5.4641    0.4827    0.0000 C   0  0  0  0  0  0  0  0  0  0  0  0
    8.1301    0.9619    0.0000 C   0  0  0  0  0  0  0  0  0  0  0  0
    6.3301    1.9827    0.0000 C   0  0  0  0  0  0  0  0  0  0  0  0
    7.2241    0.4480    0.0000 C   0  0  0  0  0  0  0  0  0  0  0  0
    4.5981    0.9827    0.0000 C   0  0  0  0  0  0  0  0  0  0  0  0
    7.2241    2.5173    0.0000 C   0  0  0  0  0  0  0  0  0  0  0  0
    9.8622    0.9552    0.0000 C   0  0  0  0  0  0  0  0  0  0  0  0
    4.5981   -1.0173    0.0000 C   0  0  0  0  0  0  0  0  0  0  0  0
    4.5981    1.9827    0.0000 C   0  0  0  0  0  0  0  0  0  0  0  0
    8.9904   -0.5415    0.0000 C   0  0  0  0  0  0  0  0  0  0  0  0
    3.7320   -0.5173    0.0000 C   0  0  0  0  0  0  0  0  0  0  0  0
    4.5981   -2.0173    0.0000 C   0  0  0  0  0  0  0  0  0  0  0  0
    9.8660    1.9552    0.0000 C   0  0  0  0  0  0  0  0  0  0  0  0
   10.7263    0.4518    0.0000 C   0  0  0  0  0  0  0  0  0  0  0  0
    2.8660   -1.0173    0.0000 C   0  0  0  0  0  0  0  0  0  0  0  0
    3.7320   -2.5173    0.0000 C   0  0  0  0  0  0  0  0  0  0  0  0
   10.7340    2.4518    0.0000 C   0  0  0  0  0  0  0  0  0  0  0  0
    3.7320    0.4827    0.0000 C   0  0  0  0  0  0  0  0  0  0  0  0
    2.8660   -2.0173    0.0000 C   0  0  0  0  0  0  0  0  0  0  0  0
   11.5981    1.9485    0.0000 C   0  0  0  0  0  0  0  0  0  0  0  0
    7.2169   -0.1720    0.0000 H   0  0  0  0  0  0  0  0  0  0  0  0
    6.0010   -0.8273    0.0000 H   0  0  0  0  0  0  0  0  0  0  0  0
    7.2169    3.1373    0.0000 H   0  0  0  0  0  0  0  0  0  0  0  0
    4.0611    2.2927    0.0000 H   0  0  0  0  0  0  0  0  0  0  0  0
    8.3704   -0.5391    0.0000 H   0  0  0  0  0  0  0  0  0  0  0  0
    8.9880   -1.1615    0.0000 H   0  0  0  0  0  0  0  0  0  0  0  0
    9.6104   -0.5439    0.0000 H   0  0  0  0  0  0  0  0  0  0  0  0
    3.7320    0.1027    0.0000 H   0  0  0  0  0  0  0  0  0  0  0  0
    5.1350   -2.3273    0.0000 H   0  0  0  0  0  0  0  0  0  0  0  0
    9.3303    2.2672    0.0000 H   0  0  0  0  0  0  0  0  0  0  0  0
   10.7239   -0.1682    0.0000 H   0  0  0  0  0  0  0  0  0  0  0  0
    3.7320   -3.1373    0.0000 H   0  0  0  0  0  0  0  0  0  0  0  0
   10.7364    3.0718    0.0000 H   0  0  0  0  0  0  0  0  0  0  0  0
   12.1362    2.2564    0.0000 H   0  0  0  0  0  0  0  0  0  0  0  0
  1 24  1  0  0  0  0
  2 28  1  0  0  0  0
  3 11  1  0  0  0  0
  3 16  1  0  0  0  0
  3 19  1  0  0  0  0
  4 10  1  0  0  0  0
  4 17  1  0  0  0  0
  4 31  1  0  0  0  0
  5 11  2  0  0  0  0
  5 15  1  0  0  0  0
  6 12  1  0  0  0  0
  6 18  2  0  0  0  0
  7 23  1  0  0  0  0
  7 29  2  0  0  0  0
  8 27  3  0  0  0  0
  9 10  1  0  0  0  0
  9 12  1  0  0  0  0
  9 13  2  0  0  0  0
 10 14  2  0  0  0  0
 11 13  1  0  0  0  0
 12 15  2  0  0  0  0
 13 30  1  0  0  0  0
 14 18  1  0  0  0  0
 14 27  1  0  0  0  0
 15 32  1  0  0  0  0
 16 22  1  0  0  0  0
 16 23  2  0  0  0  0
 17 20  2  0  0  0  0
 17 21  1  0  0  0  0
 18 33  1  0  0  0  0
 19 34  1  0  0  0  0
 19 35  1  0  0  0  0
 19 36  1  0  0  0  0
 20 24  1  0  0  0  0
 20 37  1  0  0  0  0
 21 25  2  0  0  0  0
 21 38  1  0  0  0  0
 22 26  2  0  0  0  0
 22 39  1  0  0  0  0
 23 40  1  0  0  0  0
 24 28  2  0  0  0  0
 25 28  1  0  0  0  0
 25 41  1  0  0  0  0
 26 29  1  0  0  0  0
 26 42  1  0  0  0  0
 29 43  1  0  0  0  0
M  END
> <PUBCHEM_COMPOUND_CID>
44450544

> <PUBCHEM_COMPOUND_CANONICALIZED>
1

> <PUBCHEM_CACTVS_COMPLEXITY>
599

> <PUBCHEM_CACTVS_HBOND_ACCEPTOR>
7

> <PUBCHEM_CACTVS_HBOND_DONOR>
1

> <PUBCHEM_CACTVS_ROTATABLE_BOND>
4

> <PUBCHEM_CACTVS_SUBSKEYS>
AAADccB7gQAEAAAAAAAAAAAAAAAAAAAAAAA8WLEAAAAAAACx/gAAHQIQAAAADArBHiw/8PPIEACwBzZnZACigC0xFyAJ2CA4dpiI4OLB29GUJAhokALIyC8QAAAOAAAAAAIAAAAAAAAABAAAAAAAAAAAAA==

> <PUBCHEM_IUPAC_OPENEYE_NAME>
4-(3-chloro-4-fluoro-anilino)-6-[methyl(3-pyridyl)amino]-1,7-naphthyridine-3-carbonitrile

> <PUBCHEM_IUPAC_CAS_NAME>
4-(3-chloro-4-fluoroanilino)-6-[methyl(3-pyridinyl)amino]-1,7-naphthyridine-3-carbonitrile

> <PUBCHEM_IUPAC_NAME>
4-(3-chloro-4-fluoroanilino)-6-[methyl(pyridin-3-yl)amino]-1,7-naphthyridine-3-carbonitrile

> <PUBCHEM_IUPAC_SYSTEMATIC_NAME>
4-[(3-chloranyl-4-fluoranyl-phenyl)amino]-6-[methyl(pyridin-3-yl)amino]-1,7-naphthyridine-3-carbonitrile

> <PUBCHEM_IUPAC_TRADITIONAL_NAME>
4-(3-chloro-4-fluoro-anilino)-6-[methyl(3-pyridyl)amino]-1,7-naphthyridine-3-carbonitrile

> <PUBCHEM_IUPAC_INCHI>
InChI=1S/C21H14ClFN6/c1-29(15-3-2-6-25-11-15)20-8-16-19(12-27-20)26-10-13(9-24)21(16)28-14-4-5-18(23)17(22)7-14/h2-8,10-12H,1H3,(H,26,28)

> <PUBCHEM_IUPAC_INCHIKEY>
CUIQYXHABOOZFA-UHFFFAOYSA-N

> <PUBCHEM_XLOGP3_AA>
4.6

> <PUBCHEM_EXACT_MASS>
404.095

> <PUBCHEM_MOLECULAR_FORMULA>
C21H14ClFN6

> <PUBCHEM_MOLECULAR_WEIGHT>
404.833

> <PUBCHEM_OPENEYE_CAN_SMILES>
CN(C1=CN=CC=C1)C2=NC=C3C(=C2)C(=C(C=N3)C#N)NC4=CC(=C(C=C4)F)Cl

> <PUBCHEM_OPENEYE_ISO_SMILES>
CN(C1=CN=CC=C1)C2=NC=C3C(=C2)C(=C(C=N3)C#N)NC4=CC(=C(C=C4)F)Cl

> <PUBCHEM_CACTVS_TPSA>
77.7

> <PUBCHEM_MONOISOTOPIC_WEIGHT>
404.095

> <PUBCHEM_TOTAL_CHARGE>
0

> <PUBCHEM_HEAVY_ATOM_COUNT>
29

> <PUBCHEM_ATOM_DEF_STEREO_COUNT>
0

> <PUBCHEM_ATOM_UDEF_STEREO_COUNT>
0

> <PUBCHEM_BOND_DEF_STEREO_COUNT>
0

> <PUBCHEM_BOND_UDEF_STEREO_COUNT>
0

> <PUBCHEM_ISOTOPIC_ATOM_COUNT>
0

> <PUBCHEM_COMPONENT_COUNT>
1

> <PUBCHEM_CACTVS_TAUTO_COUNT>
3

> <PUBCHEM_COORDINATE_TYPE>
1
5
255

> <PUBCHEM_BONDANNOTATIONS>
10  14  8
11  13  8
12  15  8
14  18  8
16  22  8
16  23  8
17  20  8
17  21  8
20  24  8
21  25  8
22  26  8
24  28  8
25  28  8
26  29  8
5  11  8
5  15  8
6  12  8
6  18  8
7  23  8
7  29  8
9  10  8
9  12  8
9  13  8

$$$$
3012
  -OEChem-11021605012D

 59 63  0     0  0  0  0  0  0999 V2000
   13.3385   -3.0547    0.0000 S   0  0  0  0  0  0  0  0  0  0  0  0
    2.0000   -1.7500    0.0000 F   0  0  0  0  0  0  0  0  0  0  0  0
   11.5263   -0.2500    0.0000 O   0  0  0  0  0  0  0  0  0  0  0  0
    8.0622   -1.2500    0.0000 N   0  0  0  0  0  0  0  0  0  0  0  0
   12.3923   -1.7500    0.0000 N   0  0  0  0  0  0  0  0  0  0  0  0
   11.5263   -3.2500    0.0000 N   0  0  0  0  0  0  0  0  0  0  0  0
    7.1962   -1.7500    0.0000 C   0  0  0  0  0  0  0  0  0  0  0  0
    8.0622   -0.2500    0.0000 C   0  0  0  0  0  0  0  0  0  0  0  0
    6.3301   -1.2500    0.0000 C   0  0  0  0  0  0  0  0  0  0  0  0
    7.1962    0.2500    0.0000 C   0  0  0  0  0  0  0  0  0  0  0  0
    6.3301   -0.2500    0.0000 C   0  0  0  0  0  0  0  0  0  0  0  0
    8.9282   -1.7500    0.0000 C   0  0  0  0  0  0  0  0  0  0  0  0
    9.7942   -1.2500    0.0000 C   0  0  0  0  0  0  0  0  0  0  0  0
    5.4641    0.2500    0.0000 C   0  0  0  0  0  0  0  0  0  0  0  0
   10.6603   -1.7500    0.0000 C   0  0  0  0  0  0  0  0  0  0  0  0
    4.5981   -0.2500    0.0000 C   0  0  0  0  0  0  0  0  0  0  0  0
    5.4641    1.2500    0.0000 C   0  0  0  0  0  0  0  0  0  0  0  0
   10.6603   -2.7500    0.0000 C   0  0  0  0  0  0  0  0  0  0  0  0
   11.5263   -1.2500    0.0000 C   0  0  0  0  0  0  0  0  0  0  0  0
    3.7320    0.2500    0.0000 C   0  0  0  0  0  0  0  0  0  0  0  0
    4.5981   -1.2500    0.0000 C   0  0  0  0  0  0  0  0  0  0  0  0
    6.3301    1.7500    0.0000 C   0  0  0  0  0  0  0  0  0  0  0  0
    4.5981    1.7500    0.0000 C   0  0  0  0  0  0  0  0  0  0  0  0
   12.3923   -2.7500    0.0000 C   0  0  0  0  0  0  0  0  0  0  0  0
    9.7942   -3.2500    0.0000 C   0  0  0  0  0  0  0  0  0  0  0  0
    2.8660   -0.2500    0.0000 C   0  0  0  0  0  0  0  0  0  0  0  0
    3.7320   -1.7500    0.0000 C   0  0  0  0  0  0  0  0  0  0  0  0
    6.3301    2.7500    0.0000 C   0  0  0  0  0  0  0  0  0  0  0  0
    4.5981    2.7500    0.0000 C   0  0  0  0  0  0  0  0  0  0  0  0
   13.3385   -1.4453    0.0000 C   0  0  0  0  0  0  0  0  0  0  0  0
    2.8660   -1.2500    0.0000 C   0  0  0  0  0  0  0  0  0  0  0  0
    5.4641    3.2500    0.0000 C   0  0  0  0  0  0  0  0  0  0  0  0
   13.9221   -2.2500    0.0000 C   0  0  0  0  0  0  0  0  0  0  0  0
    6.7976   -2.2250    0.0000 H   0  0  0  0  0  0  0  0  0  0  0  0
    7.5947   -2.2250    0.0000 H   0  0  0  0  0  0  0  0  0  0  0  0
    8.6728   -0.3577    0.0000 H   0  0  0  0  0  0  0  0  0  0  0  0
    8.2742    0.3326    0.0000 H   0  0  0  0  0  0  0  0  0  0  0  0
    7.5947    0.7249    0.0000 H   0  0  0  0  0  0  0  0  0  0  0  0
    6.7976    0.7249    0.0000 H   0  0  0  0  0  0  0  0  0  0  0  0
    5.7196   -1.1423    0.0000 H   0  0  0  0  0  0  0  0  0  0  0  0
    6.1181   -1.8326    0.0000 H   0  0  0  0  0  0  0  0  0  0  0  0
    8.5297   -2.2250    0.0000 H   0  0  0  0  0  0  0  0  0  0  0  0
    9.3267   -2.2250    0.0000 H   0  0  0  0  0  0  0  0  0  0  0  0
   10.1928   -0.7751    0.0000 H   0  0  0  0  0  0  0  0  0  0  0  0
    9.3957   -0.7751    0.0000 H   0  0  0  0  0  0  0  0  0  0  0  0
    3.7320    0.8700    0.0000 H   0  0  0  0  0  0  0  0  0  0  0  0
    5.1350   -1.5600    0.0000 H   0  0  0  0  0  0  0  0  0  0  0  0
    6.8671    1.4400    0.0000 H   0  0  0  0  0  0  0  0  0  0  0  0
    4.0611    1.4400    0.0000 H   0  0  0  0  0  0  0  0  0  0  0  0
    9.4842   -2.7131    0.0000 H   0  0  0  0  0  0  0  0  0  0  0  0
    9.2573   -3.5600    0.0000 H   0  0  0  0  0  0  0  0  0  0  0  0
   10.1042   -3.7869    0.0000 H   0  0  0  0  0  0  0  0  0  0  0  0
    2.3291    0.0600    0.0000 H   0  0  0  0  0  0  0  0  0  0  0  0
    3.7320   -2.3700    0.0000 H   0  0  0  0  0  0  0  0  0  0  0  0
    6.8671    3.0600    0.0000 H   0  0  0  0  0  0  0  0  0  0  0  0
    4.0611    3.0600    0.0000 H   0  0  0  0  0  0  0  0  0  0  0  0
   13.5311   -0.8559    0.0000 H   0  0  0  0  0  0  0  0  0  0  0  0
    5.4641    3.8700    0.0000 H   0  0  0  0  0  0  0  0  0  0  0  0
   14.5421   -2.2500    0.0000 H   0  0  0  0  0  0  0  0  0  0  0  0
  1 24  1  0  0  0  0
  1 33  1  0  0  0  0
  2 31  1  0  0  0  0
  3 19  2  0  0  0  0
  4  7  1  0  0  0  0
  4  8  1  0  0  0  0
  4 12  1  0  0  0  0
  5 19  1  0  0  0  0
  5 24  1  0  0  0  0
  5 30  1  0  0  0  0
  6 18  1  0  0  0  0
  6 24  2  0  0  0  0
  7  9  1  0  0  0  0
  7 34  1  0  0  0  0
  7 35  1  0  0  0  0
  8 10  1  0  0  0  0
  8 36  1  0  0  0  0
  8 37  1  0  0  0  0
  9 11  1  0  0  0  0
  9 40  1  0  0  0  0
  9 41  1  0  0  0  0
 10 11  1  0  0  0  0
 10 38  1  0  0  0  0
 10 39  1  0  0  0  0
 11 14  2  0  0  0  0
 12 13  1  0  0  0  0
 12 42  1  0  0  0  0
 12 43  1  0  0  0  0
 13 15  1  0  0  0  0
 13 44  1  0  0  0  0
 13 45  1  0  0  0  0
 14 16  1  0  0  0  0
 14 17  1  0  0  0  0
 15 18  2  0  0  0  0
 15 19  1  0  0  0  0
 16 20  2  0  0  0  0
 16 21  1  0  0  0  0
 17 22  2  0  0  0  0
 17 23  1  0  0  0  0
 18 25  1  0  0  0  0
 20 26  1  0  0  0  0
 20 46  1  0  0  0  0
 21 27  2  0  0  0  0
 21 47  1  0  0  0  0
 22 28  1  0  0  0  0
 22 48  1  0  0  0  0
 23 29  2  0  0  0  0
 23 49  1  0  0  0  0
 25 50  1  0  0  0  0
 25 51  1  0  0  0  0
 25 52  1  0  0  0  0
 26 31  2  0  0  0  0
 26 53  1  0  0  0  0
 27 31  1  0  0  0  0
 27 54  1  0  0  0  0
 28 32  2  0  0  0  0
 28 55  1  0  0  0  0
 29 32  1  0  0  0  0
 29 56  1  0  0  0  0
 30 33  2  0  0  0  0
 30 57  1  0  0  0  0
 32 58  1  0  0  0  0
 33 59  1  0  0  0  0
M  END
> <PUBCHEM_COMPOUND_CID>
3012

> <PUBCHEM_COMPOUND_CANONICALIZED>
1

> <PUBCHEM_CACTVS_COMPLEXITY>
868

> <PUBCHEM_CACTVS_HBOND_ACCEPTOR>
5

> <PUBCHEM_CACTVS_HBOND_DONOR>
0

> <PUBCHEM_CACTVS_ROTATABLE_BOND>
5

> <PUBCHEM_CACTVS_SUBSKEYS>
AAADceB7IQBAAAAAAAAAAAAAAAAAAQAAAAA8YIEAAAAAAEABQAAAHwQAAAAADAjF2AyzAIMAAAioAiVWdACCEAFgAgAJiAEIAMgIIDKAmRCEIAAgggCIiUcUgMAOAAAAAAAAAAAAAAAAAAAAAAAAAAAAAA==

> <PUBCHEM_IUPAC_OPENEYE_NAME>
6-[2-[4-[(4-fluorophenyl)-phenyl-methylene]-1-piperidyl]ethyl]-7-methyl-thiazolo[3,2-a]pyrimidin-5-one

> <PUBCHEM_IUPAC_CAS_NAME>
6-[2-[4-[(4-fluorophenyl)-phenylmethylidene]-1-piperidinyl]ethyl]-7-methyl-5-thiazolo[3,2-a]pyrimidinone

> <PUBCHEM_IUPAC_NAME>
6-[2-[4-[(4-fluorophenyl)-phenylmethylidene]piperidin-1-yl]ethyl]-7-methyl-[1,3]thiazolo[3,2-a]pyrimidin-5-one

> <PUBCHEM_IUPAC_SYSTEMATIC_NAME>
6-[2-[4-[(4-fluorophenyl)-phenyl-methylidene]piperidin-1-yl]ethyl]-7-methyl-[1,3]thiazolo[3,2-a]pyrimidin-5-one

> <PUBCHEM_IUPAC_TRADITIONAL_NAME>
6-[2-[4-[(4-fluorophenyl)-phenyl-methylene]piperidino]ethyl]-7-methyl-thiazolo[3,2-a]pyrimidin-5-one

> <PUBCHEM_IUPAC_INCHI>
InChI=1S/C27H26FN3OS/c1-19-24(26(32)31-17-18-33-27(31)29-19)13-16-30-14-11-22(12-15-30)25(20-5-3-2-4-6-20)21-7-9-23(28)10-8-21/h2-10,17-18H,11-16H2,1H3

> <PUBCHEM_IUPAC_INCHIKEY>
MFVJXLPANKSLLD-UHFFFAOYSA-N

> <PUBCHEM_XLOGP3_AA>
5.1

> <PUBCHEM_EXACT_MASS>
459.178

> <PUBCHEM_MOLECULAR_FORMULA>
C27H26FN3OS

> <PUBCHEM_MOLECULAR_WEIGHT>
459.583

> <PUBCHEM_OPENEYE_CAN_SMILES>
CC1=C(C(=O)N2C=CSC2=N1)CCN3CCC(=C(C4=CC=CC=C4)C5=CC=C(C=C5)F)CC3

> <PUBCHEM_OPENEYE_ISO_SMILES>
CC1=C(C(=O)N2C=CSC2=N1)CCN3CCC(=C(C4=CC=CC=C4)C5=CC=C(C=C5)F)CC3

> <PUBCHEM_CACTVS_TPSA>
61.2

> <PUBCHEM_MONOISOTOPIC_WEIGHT>
459.178

> <PUBCHEM_TOTAL_CHARGE>
0

> <PUBCHEM_HEAVY_ATOM_COUNT>
33

> <PUBCHEM_ATOM_DEF_STEREO_COUNT>
0

> <PUBCHEM_ATOM_UDEF_STEREO_COUNT>
0

> <PUBCHEM_BOND_DEF_STEREO_COUNT>
0

> <PUBCHEM_BOND_UDEF_STEREO_COUNT>
0

> <PUBCHEM_ISOTOPIC_ATOM_COUNT>
0

> <PUBCHEM_COMPONENT_COUNT>
1

> <PUBCHEM_CACTVS_TAUTO_COUNT>
1

> <PUBCHEM_COORDINATE_TYPE>
1
5
255

> <PUBCHEM_BONDANNOTATIONS>
1  24  8
1  33  8
15  18  8
15  19  8
16  20  8
16  21  8
17  22  8
17  23  8
20  26  8
21  27  8
22  28  8
23  29  8
26  31  8
27  31  8
28  32  8
29  32  8
30  33  8
5  19  8
5  24  8
5  30  8
6  18  8
6  24  8

$$$$
5941457
  -OEChem-11021605012D

 43 44  0     0  0  0  0  0  0999 V2000
    4.5981   -1.5600    0.0000 S   0  0  0  0  0  0  0  0  0  0  0  0
    8.9282   -2.0600    0.0000 O   0  0  0  0  0  0  0  0  0  0  0  0
    7.1962   -3.0600    0.0000 O   0  0  0  0  0  0  0  0  0  0  0  0
    7.1962    2.9400    0.0000 O   0  0  0  0  0  0  0  0  0  0  0  0
    8.9282    2.9400    0.0000 N   0  0  0  0  0  0  0  0  0  0  0  0
    9.7942    0.4400    0.0000 N   0  0  0  0  0  0  0  0  0  0  0  0
    6.3301   -1.5600    0.0000 C   0  0  0  0  0  0  0  0  0  0  0  0
    7.1962   -2.0600    0.0000 C   0  0  0  0  0  0  0  0  0  0  0  0
    7.1962   -0.0600    0.0000 C   0  0  0  0  0  0  0  0  0  0  0  0
    6.3301   -0.5600    0.0000 C   0  0  0  0  0  0  0  0  0  0  0  0
    5.4641   -2.0600    0.0000 C   0  0  0  0  0  0  0  0  0  0  0  0
    8.0622   -1.5600    0.0000 C   0  0  0  0  0  0  0  0  0  0  0  0
    8.0622   -0.5600    0.0000 C   0  0  0  0  0  0  0  0  0  0  0  0
    7.1962    0.9400    0.0000 C   0  0  0  0  0  0  0  0  0  0  0  0
    9.7942   -1.5600    0.0000 C   0  0  0  0  0  0  0  0  0  0  0  0
    3.7320   -2.0600    0.0000 C   0  0  0  0  0  0  0  0  0  0  0  0
    8.0622    1.4400    0.0000 C   0  0  0  0  0  0  0  0  0  0  0  0
    2.8660   -1.5600    0.0000 C   0  0  0  0  0  0  0  0  0  0  0  0
    3.7320   -3.0600    0.0000 C   0  0  0  0  0  0  0  0  0  0  0  0
   10.6603   -2.0600    0.0000 C   0  0  0  0  0  0  0  0  0  0  0  0
    2.0000   -2.0600    0.0000 C   0  0  0  0  0  0  0  0  0  0  0  0
    2.8660   -3.5600    0.0000 C   0  0  0  0  0  0  0  0  0  0  0  0
    2.0000   -3.0600    0.0000 C   0  0  0  0  0  0  0  0  0  0  0  0
    8.0622    2.4400    0.0000 C   0  0  0  0  0  0  0  0  0  0  0  0
    8.9282    0.9400    0.0000 C   0  0  0  0  0  0  0  0  0  0  0  0
    5.7932   -0.2500    0.0000 H   0  0  0  0  0  0  0  0  0  0  0  0
    5.0656   -2.5349    0.0000 H   0  0  0  0  0  0  0  0  0  0  0  0
    5.8626   -2.5349    0.0000 H   0  0  0  0  0  0  0  0  0  0  0  0
    8.5991   -0.2500    0.0000 H   0  0  0  0  0  0  0  0  0  0  0  0
    6.6592    1.2500    0.0000 H   0  0  0  0  0  0  0  0  0  0  0  0
   10.1928   -1.0850    0.0000 H   0  0  0  0  0  0  0  0  0  0  0  0
    9.3957   -1.0850    0.0000 H   0  0  0  0  0  0  0  0  0  0  0  0
    6.6592   -3.3700    0.0000 H   0  0  0  0  0  0  0  0  0  0  0  0
    2.8660   -0.9400    0.0000 H   0  0  0  0  0  0  0  0  0  0  0  0
    4.2690   -3.3700    0.0000 H   0  0  0  0  0  0  0  0  0  0  0  0
   10.3503   -2.5969    0.0000 H   0  0  0  0  0  0  0  0  0  0  0  0
   11.1972   -2.3700    0.0000 H   0  0  0  0  0  0  0  0  0  0  0  0
   10.9703   -1.5231    0.0000 H   0  0  0  0  0  0  0  0  0  0  0  0
    1.4631   -1.7500    0.0000 H   0  0  0  0  0  0  0  0  0  0  0  0
    2.8660   -4.1800    0.0000 H   0  0  0  0  0  0  0  0  0  0  0  0
    1.4631   -3.3700    0.0000 H   0  0  0  0  0  0  0  0  0  0  0  0
    8.9282    3.5600    0.0000 H   0  0  0  0  0  0  0  0  0  0  0  0
    9.4651    2.6300    0.0000 H   0  0  0  0  0  0  0  0  0  0  0  0
  1 11  1  0  0  0  0
  1 16  1  0  0  0  0
  2 12  1  0  0  0  0
  2 15  1  0  0  0  0
  3  8  1  0  0  0  0
  3 33  1  0  0  0  0
  4 24  2  0  0  0  0
  5 24  1  0  0  0  0
  5 42  1  0  0  0  0
  5 43  1  0  0  0  0
  6 25  3  0  0  0  0
  7  8  2  0  0  0  0
  7 10  1  0  0  0  0
  7 11  1  0  0  0  0
  8 12  1  0  0  0  0
  9 10  2  0  0  0  0
  9 13  1  0  0  0  0
  9 14  1  0  0  0  0
 10 26  1  0  0  0  0
 11 27  1  0  0  0  0
 11 28  1  0  0  0  0
 12 13  2  0  0  0  0
 13 29  1  0  0  0  0
 14 17  2  0  0  0  0
 14 30  1  0  0  0  0
 15 20  1  0  0  0  0
 15 31  1  0  0  0  0
 15 32  1  0  0  0  0
 16 18  2  0  0  0  0
 16 19  1  0  0  0  0
 17 24  1  0  0  0  0
 17 25  1  0  0  0  0
 18 21  1  0  0  0  0
 18 34  1  0  0  0  0
 19 22  2  0  0  0  0
 19 35  1  0  0  0  0
 20 36  1  0  0  0  0
 20 37  1  0  0  0  0
 20 38  1  0  0  0  0
 21 23  2  0  0  0  0
 21 39  1  0  0  0  0
 22 23  1  0  0  0  0
 22 40  1  0  0  0  0
 23 41  1  0  0  0  0
M  END
> <PUBCHEM_COMPOUND_CID>
5941457

> <PUBCHEM_COMPOUND_CANONICALIZED>
1

> <PUBCHEM_CACTVS_COMPLEXITY>
522

> <PUBCHEM_CACTVS_HBOND_ACCEPTOR>
5

> <PUBCHEM_CACTVS_HBOND_DONOR>
2

> <PUBCHEM_CACTVS_ROTATABLE_BOND>
7

> <PUBCHEM_CACTVS_SUBSKEYS>
AAADceB7MABAAAAAAAAAAAAAAAAAAAAAAAAwYAAAAAAAAAABQAAAHgQQCAAADASl2AKyB4BABgiYBiFSEACiCAAgKBAIiBkGiMgNpiKmMRqCeCOkwBEruYeAwHAOIAADAAAIQABAAAYAABCAAAAAAAAAAA==

> <PUBCHEM_IUPAC_OPENEYE_NAME>
(E)-2-cyano-3-[3-ethoxy-4-hydroxy-5-(phenylsulfanylmethyl)phenyl]prop-2-enamide

> <PUBCHEM_IUPAC_CAS_NAME>
(E)-2-cyano-3-[3-ethoxy-4-hydroxy-5-[(phenylthio)methyl]phenyl]-2-propenamide

> <PUBCHEM_IUPAC_NAME>
(E)-2-cyano-3-[3-ethoxy-4-hydroxy-5-(phenylsulfanylmethyl)phenyl]prop-2-enamide

> <PUBCHEM_IUPAC_SYSTEMATIC_NAME>
(E)-2-cyano-3-[3-ethoxy-4-oxidanyl-5-(phenylsulfanylmethyl)phenyl]prop-2-enamide

> <PUBCHEM_IUPAC_TRADITIONAL_NAME>
(E)-2-cyano-3-[3-ethoxy-4-hydroxy-5-[(phenylthio)methyl]phenyl]acrylamide

> <PUBCHEM_IUPAC_INCHI>
InChI=1S/C19H18N2O3S/c1-2-24-17-10-13(8-14(11-20)19(21)23)9-15(18(17)22)12-25-16-6-4-3-5-7-16/h3-10,22H,2,12H2,1H3,(H2,21,23)/b14-8+

> <PUBCHEM_IUPAC_INCHIKEY>
YKLMGKWXBLSKPK-RIYZIHGNSA-N

> <PUBCHEM_XLOGP3_AA>
3.1

> <PUBCHEM_EXACT_MASS>
354.104

> <PUBCHEM_MOLECULAR_FORMULA>
C19H18N2O3S

> <PUBCHEM_MOLECULAR_WEIGHT>
354.424

> <PUBCHEM_OPENEYE_CAN_SMILES>
CCOC1=CC(=CC(=C1O)CSC2=CC=CC=C2)C=C(C#N)C(=O)N

> <PUBCHEM_OPENEYE_ISO_SMILES>
CCOC1=CC(=CC(=C1O)CSC2=CC=CC=C2)/C=C(\C#N)/C(=O)N

> <PUBCHEM_CACTVS_TPSA>
122

> <PUBCHEM_MONOISOTOPIC_WEIGHT>
354.104

> <PUBCHEM_TOTAL_CHARGE>
0

> <PUBCHEM_HEAVY_ATOM_COUNT>
25

> <PUBCHEM_ATOM_DEF_STEREO_COUNT>
0

> <PUBCHEM_ATOM_UDEF_STEREO_COUNT>
0

> <PUBCHEM_BOND_DEF_STEREO_COUNT>
1

> <PUBCHEM_BOND_UDEF_STEREO_COUNT>
0

> <PUBCHEM_ISOTOPIC_ATOM_COUNT>
0

> <PUBCHEM_COMPONENT_COUNT>
1

> <PUBCHEM_CACTVS_TAUTO_COUNT>
9

> <PUBCHEM_COORDINATE_TYPE>
1
5
255

> <PUBCHEM_BONDANNOTATIONS>
12  13  8
16  18  8
16  19  8
18  21  8
19  22  8
21  23  8
22  23  8
7  10  8
7  8  8
8  12  8
9  10  8
9  13  8

$$$$
54676905
  -OEChem-11021605012D

 25 25  0     0  0  0  0  0  0999 V2000
    2.0000   -1.0000    0.0000 Br  0  0  0  0  0  0  0  0  0  0  0  0
    5.4641   -3.0000    0.0000 Br  0  0  0  0  0  0  0  0  0  0  0  0
    5.4641    0.0000    0.0000 O   0  0  0  0  0  0  0  0  0  0  0  0
    6.3301    1.5000    0.0000 O   0  0  0  0  0  0  0  0  0  0  0  0
    3.7320    0.0000    0.0000 N   0  0  0  0  0  0  0  0  0  0  0  0
    2.8660    2.5000    0.0000 N   0  0  0  0  0  0  0  0  0  0  0  0
    3.7320   -1.0000    0.0000 C   0  0  0  0  0  0  0  0  0  0  0  0
    2.8660   -1.5000    0.0000 C   0  0  0  0  0  0  0  0  0  0  0  0
    4.5981   -1.5000    0.0000 C   0  0  0  0  0  0  0  0  0  0  0  0
    4.5981    0.5000    0.0000 C   0  0  0  0  0  0  0  0  0  0  0  0
    4.5981   -2.5000    0.0000 C   0  0  0  0  0  0  0  0  0  0  0  0
    2.8660   -2.5000    0.0000 C   0  0  0  0  0  0  0  0  0  0  0  0
    3.7320   -3.0000    0.0000 C   0  0  0  0  0  0  0  0  0  0  0  0
    4.5981    1.5000    0.0000 C   0  0  0  0  0  0  0  0  0  0  0  0
    5.4641    2.0000    0.0000 C   0  0  0  0  0  0  0  0  0  0  0  0
    5.4641    3.0000    0.0000 C   0  0  0  0  0  0  0  0  0  0  0  0
    3.7320    2.0000    0.0000 C   0  0  0  0  0  0  0  0  0  0  0  0
    3.1951    0.3100    0.0000 H   0  0  0  0  0  0  0  0  0  0  0  0
    5.1350   -1.1900    0.0000 H   0  0  0  0  0  0  0  0  0  0  0  0
    2.3291   -2.8100    0.0000 H   0  0  0  0  0  0  0  0  0  0  0  0
    3.7320   -3.6200    0.0000 H   0  0  0  0  0  0  0  0  0  0  0  0
    6.0841    3.0000    0.0000 H   0  0  0  0  0  0  0  0  0  0  0  0
    5.4641    3.6200    0.0000 H   0  0  0  0  0  0  0  0  0  0  0  0
    4.8441    3.0000    0.0000 H   0  0  0  0  0  0  0  0  0  0  0  0
    6.8671    1.8100    0.0000 H   0  0  0  0  0  0  0  0  0  0  0  0
  1  8  1  0  0  0  0
  2 11  1  0  0  0  0
  3 10  2  0  0  0  0
  4 15  1  0  0  0  0
  4 25  1  0  0  0  0
  5  7  1  0  0  0  0
  5 10  1  0  0  0  0
  5 18  1  0  0  0  0
  6 17  3  0  0  0  0
  7  8  2  0  0  0  0
  7  9  1  0  0  0  0
  8 12  1  0  0  0  0
  9 11  2  0  0  0  0
  9 19  1  0  0  0  0
 10 14  1  0  0  0  0
 11 13  1  0  0  0  0
 12 13  2  0  0  0  0
 12 20  1  0  0  0  0
 13 21  1  0  0  0  0
 14 15  2  0  0  0  0
 14 17  1  0  0  0  0
 15 16  1  0  0  0  0
 16 22  1  0  0  0  0
 16 23  1  0  0  0  0
 16 24  1  0  0  0  0
M  END
> <PUBCHEM_COMPOUND_CID>
54676905

> <PUBCHEM_COMPOUND_CANONICALIZED>
1

> <PUBCHEM_CACTVS_COMPLEXITY>
386

> <PUBCHEM_CACTVS_HBOND_ACCEPTOR>
3

> <PUBCHEM_CACTVS_HBOND_DONOR>
2

> <PUBCHEM_CACTVS_ROTATABLE_BOND>
2

> <PUBCHEM_CACTVS_SUBSKEYS>
AAADccBzMAAAGAAAAAAAAAAAAAAAAAAAAAAwAAAAAAAAAAABAAAAHgBQCAABrAyBkAAywILAAgCYBiVSUACiAAAhIgQIiAEAZOgIoCLAkZGEIAhglADIyxcQAAAAAAAEAAEAAAgAAAgAAgAAEAAAAAAAAA==

> <PUBCHEM_IUPAC_OPENEYE_NAME>
(Z)-2-cyano-N-(2,5-dibromophenyl)-3-hydroxy-but-2-enamide

> <PUBCHEM_IUPAC_CAS_NAME>
(Z)-2-cyano-N-(2,5-dibromophenyl)-3-hydroxy-2-butenamide

> <PUBCHEM_IUPAC_NAME>
(Z)-2-cyano-N-(2,5-dibromophenyl)-3-hydroxybut-2-enamide

> <PUBCHEM_IUPAC_SYSTEMATIC_NAME>
(Z)-N-[2,5-bis(bromanyl)phenyl]-2-cyano-3-oxidanyl-but-2-enamide

> <PUBCHEM_IUPAC_TRADITIONAL_NAME>
(Z)-2-cyano-N-(2,5-dibromophenyl)-3-hydroxy-but-2-enamide

> <PUBCHEM_IUPAC_INCHI>
InChI=1S/C11H8Br2N2O2/c1-6(16)8(5-14)11(17)15-10-4-7(12)2-3-9(10)13/h2-4,16H,1H3,(H,15,17)/b8-6-

> <PUBCHEM_IUPAC_INCHIKEY>
UVSVTDVJQAJIFG-VURMDHGXSA-N

> <PUBCHEM_XLOGP3_AA>
3.8

> <PUBCHEM_EXACT_MASS>
359.893

> <PUBCHEM_MOLECULAR_FORMULA>
C11H8Br2N2O2

> <PUBCHEM_MOLECULAR_WEIGHT>
360.005

> <PUBCHEM_OPENEYE_CAN_SMILES>
CC(=C(C#N)C(=O)NC1=C(C=CC(=C1)Br)Br)O

> <PUBCHEM_OPENEYE_ISO_SMILES>
C/C(=C(\C#N)/C(=O)NC1=C(C=CC(=C1)Br)Br)/O

> <PUBCHEM_CACTVS_TPSA>
73.1

> <PUBCHEM_MONOISOTOPIC_WEIGHT>
357.895

> <PUBCHEM_TOTAL_CHARGE>
0

> <PUBCHEM_HEAVY_ATOM_COUNT>
17

> <PUBCHEM_ATOM_DEF_STEREO_COUNT>
0

> <PUBCHEM_ATOM_UDEF_STEREO_COUNT>
0

> <PUBCHEM_BOND_DEF_STEREO_COUNT>
1

> <PUBCHEM_BOND_UDEF_STEREO_COUNT>
0

> <PUBCHEM_ISOTOPIC_ATOM_COUNT>
0

> <PUBCHEM_COMPONENT_COUNT>
1

> <PUBCHEM_CACTVS_TAUTO_COUNT>
8

> <PUBCHEM_COORDINATE_TYPE>
1
5
255

> <PUBCHEM_BONDANNOTATIONS>
11  13  8
12  13  8
7  8  8
7  9  8
8  12  8
9  11  8

$$$$
118738053
  -OEChem-11021605012D

 44 46  0     0  0  0  0  0  0999 V2000
    2.0000    4.2500    0.0000 Cl  0  0  0  0  0  0  0  0  0  0  0  0
    3.7320    6.2500    0.0000 F   0  0  0  0  0  0  0  0  0  0  0  0
    4.7320    5.2500    0.0000 F   0  0  0  0  0  0  0  0  0  0  0  0
    2.7320    5.2500    0.0000 F   0  0  0  0  0  0  0  0  0  0  0  0
    5.4641   -1.7500    0.0000 O   0  0  0  0  0  0  0  0  0  0  0  0
    6.3301   -5.2500    0.0000 O   0  0  0  0  0  0  0  0  0  0  0  0
    5.4641    2.2500    0.0000 N   0  0  0  0  0  0  0  0  0  0  0  0
    8.0622   -3.2500    0.0000 N   0  0  0  0  0  0  0  0  0  0  0  0
    8.0622   -5.2500    0.0000 N   0  0  0  0  0  0  0  0  0  0  0  0
    4.5981    2.7500    0.0000 C   0  0  0  0  0  0  0  0  0  0  0  0
    5.4641    1.2500    0.0000 C   0  0  0  0  0  0  0  0  0  0  0  0
    3.7320    4.2500    0.0000 C   0  0  0  0  0  0  0  0  0  0  0  0
    4.5981    3.7500    0.0000 C   0  0  0  0  0  0  0  0  0  0  0  0
    3.7320    2.2500    0.0000 C   0  0  0  0  0  0  0  0  0  0  0  0
    6.3301    0.7500    0.0000 C   0  0  0  0  0  0  0  0  0  0  0  0
    4.5981    0.7500    0.0000 C   0  0  0  0  0  0  0  0  0  0  0  0
    5.4641   -0.7500    0.0000 C   0  0  0  0  0  0  0  0  0  0  0  0
    2.8660    3.7500    0.0000 C   0  0  0  0  0  0  0  0  0  0  0  0
    6.3301   -0.2500    0.0000 C   0  0  0  0  0  0  0  0  0  0  0  0
    4.5981   -0.2500    0.0000 C   0  0  0  0  0  0  0  0  0  0  0  0
    2.8660    2.7500    0.0000 C   0  0  0  0  0  0  0  0  0  0  0  0
    3.7320    5.2500    0.0000 C   0  0  0  0  0  0  0  0  0  0  0  0
    6.3301   -2.2500    0.0000 C   0  0  0  0  0  0  0  0  0  0  0  0
    6.3301   -3.2500    0.0000 C   0  0  0  0  0  0  0  0  0  0  0  0
    7.1962   -3.7500    0.0000 C   0  0  0  0  0  0  0  0  0  0  0  0
    7.1962   -1.7500    0.0000 C   0  0  0  0  0  0  0  0  0  0  0  0
    8.0622   -2.2500    0.0000 C   0  0  0  0  0  0  0  0  0  0  0  0
    7.1962   -4.7500    0.0000 C   0  0  0  0  0  0  0  0  0  0  0  0
    8.0622   -6.2500    0.0000 C   0  0  0  0  0  0  0  0  0  0  0  0
    6.0010    2.5600    0.0000 H   0  0  0  0  0  0  0  0  0  0  0  0
    5.1350    4.0600    0.0000 H   0  0  0  0  0  0  0  0  0  0  0  0
    3.7320    1.6300    0.0000 H   0  0  0  0  0  0  0  0  0  0  0  0
    6.8671    1.0600    0.0000 H   0  0  0  0  0  0  0  0  0  0  0  0
    4.0611    1.0600    0.0000 H   0  0  0  0  0  0  0  0  0  0  0  0
    6.8671   -0.5600    0.0000 H   0  0  0  0  0  0  0  0  0  0  0  0
    4.0611   -0.5600    0.0000 H   0  0  0  0  0  0  0  0  0  0  0  0
    2.3291    2.4400    0.0000 H   0  0  0  0  0  0  0  0  0  0  0  0
    5.7932   -3.5600    0.0000 H   0  0  0  0  0  0  0  0  0  0  0  0
    7.1962   -1.1300    0.0000 H   0  0  0  0  0  0  0  0  0  0  0  0
    8.5991   -1.9400    0.0000 H   0  0  0  0  0  0  0  0  0  0  0  0
    8.5991   -4.9400    0.0000 H   0  0  0  0  0  0  0  0  0  0  0  0
    7.4422   -6.2500    0.0000 H   0  0  0  0  0  0  0  0  0  0  0  0
    8.0622   -6.8700    0.0000 H   0  0  0  0  0  0  0  0  0  0  0  0
    8.6822   -6.2500    0.0000 H   0  0  0  0  0  0  0  0  0  0  0  0
  1 18  1  0  0  0  0
  2 22  1  0  0  0  0
  3 22  1  0  0  0  0
  4 22  1  0  0  0  0
  5 17  1  0  0  0  0
  5 23  1  0  0  0  0
  6 28  2  0  0  0  0
  7 10  1  0  0  0  0
  7 11  1  0  0  0  0
  7 30  1  0  0  0  0
  8 25  2  0  0  0  0
  8 27  1  0  0  0  0
  9 28  1  0  0  0  0
  9 29  1  0  0  0  0
  9 41  1  0  0  0  0
 10 13  2  0  0  0  0
 10 14  1  0  0  0  0
 11 15  2  0  0  0  0
 11 16  1  0  0  0  0
 12 13  1  0  0  0  0
 12 18  2  0  0  0  0
 12 22  1  0  0  0  0
 13 31  1  0  0  0  0
 14 21  2  0  0  0  0
 14 32  1  0  0  0  0
 15 19  1  0  0  0  0
 15 33  1  0  0  0  0
 16 20  2  0  0  0  0
 16 34  1  0  0  0  0
 17 19  2  0  0  0  0
 17 20  1  0  0  0  0
 18 21  1  0  0  0  0
 19 35  1  0  0  0  0
 20 36  1  0  0  0  0
 21 37  1  0  0  0  0
 23 24  2  0  0  0  0
 23 26  1  0  0  0  0
 24 25  1  0  0  0  0
 24 38  1  0  0  0  0
 25 28  1  0  0  0  0
 26 27  2  0  0  0  0
 26 39  1  0  0  0  0
 27 40  1  0  0  0  0
 29 42  1  0  0  0  0
 29 43  1  0  0  0  0
 29 44  1  0  0  0  0
M  END
> <PUBCHEM_COMPOUND_CID>
118738053

> <PUBCHEM_COMPOUND_CANONICALIZED>
1

> <PUBCHEM_CACTVS_COMPLEXITY>
544

> <PUBCHEM_CACTVS_HBOND_ACCEPTOR>
7

> <PUBCHEM_CACTVS_HBOND_DONOR>
2

> <PUBCHEM_CACTVS_ROTATABLE_BOND>
5

> <PUBCHEM_CACTVS_SUBSKEYS>
AAADccB7MYAEAAAAAAAAAAAAAAAAAAAAAAA8YIAAAAAAAAAB0AAAHwIQAAAADA7BnjQ+xpLIFACoAzV3VACCiCA3JyAI2KG+btgMZnLFt7uWOSjm0hnI6Ye6yAAOAEBAQAABAAAAgICAAAIAAAAAAAAAAA==

> <PUBCHEM_IUPAC_OPENEYE_NAME>
4-[4-[4-chloro-3-(trifluoromethyl)anilino]phenoxy]-N-methyl-pyridine-2-carboxamide

> <PUBCHEM_IUPAC_CAS_NAME>
4-[4-[4-chloro-3-(trifluoromethyl)anilino]phenoxy]-N-methyl-2-pyridinecarboxamide

> <PUBCHEM_IUPAC_NAME>
4-[4-[4-chloro-3-(trifluoromethyl)anilino]phenoxy]-N-methylpyridine-2-carboxamide

> <PUBCHEM_IUPAC_SYSTEMATIC_NAME>
4-[4-[[4-chloranyl-3-(trifluoromethyl)phenyl]amino]phenoxy]-N-methyl-pyridine-2-carboxamide

> <PUBCHEM_IUPAC_TRADITIONAL_NAME>
4-[4-[4-chloro-3-(trifluoromethyl)anilino]phenoxy]-N-methyl-picolinamide

> <PUBCHEM_IUPAC_INCHI>
InChI=1S/C20H15ClF3N3O2/c1-25-19(28)18-11-15(8-9-26-18)29-14-5-2-12(3-6-14)27-13-4-7-17(21)16(10-13)20(22,23)24/h2-11,27H,1H3,(H,25,28)

> <PUBCHEM_IUPAC_INCHIKEY>
MSDXNLICHRRNEK-UHFFFAOYSA-N

> <PUBCHEM_XLOGP3_AA>
5

> <PUBCHEM_EXACT_MASS>
421.08

> <PUBCHEM_MOLECULAR_FORMULA>
C20H15ClF3N3O2

> <PUBCHEM_MOLECULAR_WEIGHT>
421.804

> <PUBCHEM_OPENEYE_CAN_SMILES>
CNC(=O)C1=NC=CC(=C1)OC2=CC=C(C=C2)NC3=CC(=C(C=C3)Cl)C(F)(F)F

> <PUBCHEM_OPENEYE_ISO_SMILES>
CNC(=O)C1=NC=CC(=C1)OC2=CC=C(C=C2)NC3=CC(=C(C=C3)Cl)C(F)(F)F

> <PUBCHEM_CACTVS_TPSA>
63.2

> <PUBCHEM_MONOISOTOPIC_WEIGHT>
421.08

> <PUBCHEM_TOTAL_CHARGE>
0

> <PUBCHEM_HEAVY_ATOM_COUNT>
29

> <PUBCHEM_ATOM_DEF_STEREO_COUNT>
0

> <PUBCHEM_ATOM_UDEF_STEREO_COUNT>
0

> <PUBCHEM_BOND_DEF_STEREO_COUNT>
0

> <PUBCHEM_BOND_UDEF_STEREO_COUNT>
0

> <PUBCHEM_ISOTOPIC_ATOM_COUNT>
0

> <PUBCHEM_COMPONENT_COUNT>
1

> <PUBCHEM_CACTVS_TAUTO_COUNT>
8

> <PUBCHEM_COORDINATE_TYPE>
1
5
255

> <PUBCHEM_BONDANNOTATIONS>
10  13  8
10  14  8
11  15  8
11  16  8
12  13  8
12  18  8
14  21  8
15  19  8
16  20  8
17  19  8
17  20  8
18  21  8
23  24  8
23  26  8
24  25  8
26  27  8
8  25  8
8  27  8

$$$$
4878
  -OEChem-11021605012D

 37 39  0     0  0  0  0  0  0999 V2000
    5.9209    3.6563    0.0000 Cl  0  0  0  0  0  0  0  0  0  0  0  0
    4.6783   -1.7552    0.0000 N   0  0  0  0  0  0  0  0  0  0  0  0
    5.2619   -0.9505    0.0000 N   0  0  0  0  0  0  0  0  0  0  0  0
    2.8660   -1.9505    0.0000 N   0  0  0  0  0  0  0  0  0  0  0  0
    2.0000   -0.4505    0.0000 N   0  0  0  0  0  0  0  0  0  0  0  0
    2.8660    1.0495    0.0000 N   0  0  0  0  0  0  0  0  0  0  0  0
    4.9889   -2.7058    0.0000 C   0  0  0  0  0  0  0  0  0  0  0  0
    5.2996   -3.6563    0.0000 C   0  0  0  0  0  0  0  0  0  0  0  0
    5.9394   -2.3951    0.0000 C   0  0  0  0  0  0  0  0  0  0  0  0
    4.0384   -3.0164    0.0000 C   0  0  0  0  0  0  0  0  0  0  0  0
    3.7320   -1.4505    0.0000 C   0  0  0  0  0  0  0  0  0  0  0  0
    3.7320   -0.4505    0.0000 C   0  0  0  0  0  0  0  0  0  0  0  0
    4.6783   -0.1458    0.0000 C   0  0  0  0  0  0  0  0  0  0  0  0
    4.9889    0.8047    0.0000 C   0  0  0  0  0  0  0  0  0  0  0  0
    2.8660    0.0495    0.0000 C   0  0  0  0  0  0  0  0  0  0  0  0
    5.9674    1.0110    0.0000 C   0  0  0  0  0  0  0  0  0  0  0  0
    4.3211    1.5490    0.0000 C   0  0  0  0  0  0  0  0  0  0  0  0
    2.0000   -1.4505    0.0000 C   0  0  0  0  0  0  0  0  0  0  0  0
    6.2781    1.9615    0.0000 C   0  0  0  0  0  0  0  0  0  0  0  0
    4.6318    2.4996    0.0000 C   0  0  0  0  0  0  0  0  0  0  0  0
    5.6103    2.7058    0.0000 C   0  0  0  0  0  0  0  0  0  0  0  0
    3.8458   -2.4271    0.0000 H   0  0  0  0  0  0  0  0  0  0  0  0
    6.1321   -2.9844    0.0000 H   0  0  0  0  0  0  0  0  0  0  0  0
    6.5288   -2.2025    0.0000 H   0  0  0  0  0  0  0  0  0  0  0  0
    5.7468   -1.8058    0.0000 H   0  0  0  0  0  0  0  0  0  0  0  0
    4.7103   -3.8489    0.0000 H   0  0  0  0  0  0  0  0  0  0  0  0
    5.4922   -4.2456    0.0000 H   0  0  0  0  0  0  0  0  0  0  0  0
    5.8889   -3.4637    0.0000 H   0  0  0  0  0  0  0  0  0  0  0  0
    3.4491   -3.2090    0.0000 H   0  0  0  0  0  0  0  0  0  0  0  0
    4.2310   -3.6058    0.0000 H   0  0  0  0  0  0  0  0  0  0  0  0
    6.3815    0.5495    0.0000 H   0  0  0  0  0  0  0  0  0  0  0  0
    3.7144    1.4212    0.0000 H   0  0  0  0  0  0  0  0  0  0  0  0
    1.4631   -1.7605    0.0000 H   0  0  0  0  0  0  0  0  0  0  0  0
    2.3291    1.3595    0.0000 H   0  0  0  0  0  0  0  0  0  0  0  0
    3.4030    1.3595    0.0000 H   0  0  0  0  0  0  0  0  0  0  0  0
    6.8848    2.0893    0.0000 H   0  0  0  0  0  0  0  0  0  0  0  0
    4.2177    2.9610    0.0000 H   0  0  0  0  0  0  0  0  0  0  0  0
  1 21  1  0  0  0  0
  2  3  1  0  0  0  0
  2  7  1  0  0  0  0
  2 11  1  0  0  0  0
  3 13  2  0  0  0  0
  4 11  2  0  0  0  0
  4 18  1  0  0  0  0
  5 15  1  0  0  0  0
  5 18  2  0  0  0  0
  6 15  1  0  0  0  0
  6 34  1  0  0  0  0
  6 35  1  0  0  0  0
  7  8  1  0  0  0  0
  7  9  1  0  0  0  0
  7 10  1  0  0  0  0
  8 26  1  0  0  0  0
  8 27  1  0  0  0  0
  8 28  1  0  0  0  0
  9 23  1  0  0  0  0
  9 24  1  0  0  0  0
  9 25  1  0  0  0  0
 10 22  1  0  0  0  0
 10 29  1  0  0  0  0
 10 30  1  0  0  0  0
 11 12  1  0  0  0  0
 12 13  1  0  0  0  0
 12 15  2  0  0  0  0
 13 14  1  0  0  0  0
 14 16  2  0  0  0  0
 14 17  1  0  0  0  0
 16 19  1  0  0  0  0
 16 31  1  0  0  0  0
 17 20  2  0  0  0  0
 17 32  1  0  0  0  0
 18 33  1  0  0  0  0
 19 21  2  0  0  0  0
 19 36  1  0  0  0  0
 20 21  1  0  0  0  0
 20 37  1  0  0  0  0
M  END
> <PUBCHEM_COMPOUND_CID>
4878

> <PUBCHEM_COMPOUND_CANONICALIZED>
1

> <PUBCHEM_CACTVS_COMPLEXITY>
364

> <PUBCHEM_CACTVS_HBOND_ACCEPTOR>
4

> <PUBCHEM_CACTVS_HBOND_DONOR>
1

> <PUBCHEM_CACTVS_ROTATABLE_BOND>
2

> <PUBCHEM_CACTVS_SUBSKEYS>
AAADceBzgAAEAAAAAAAAAAAAAAAAAWAAAAA8QAAAAAAAAFgB/AAAHAIYAAAADIqBHyQ3sN5IEACiAyZjZACShCsxBaAd2CAoRpiIKKLB29GEpAhoiALIyCcQgMAOBAAAAAAAAAAIAAAAAAAAAAAAAAAAAA==

> <PUBCHEM_IUPAC_OPENEYE_NAME>
1-tert-butyl-3-(4-chlorophenyl)pyrazolo[3,4-d]pyrimidin-4-amine

> <PUBCHEM_IUPAC_CAS_NAME>
1-tert-butyl-3-(4-chlorophenyl)-4-pyrazolo[3,4-d]pyrimidinamine

> <PUBCHEM_IUPAC_NAME>
1-tert-butyl-3-(4-chlorophenyl)pyrazolo[3,4-d]pyrimidin-4-amine

> <PUBCHEM_IUPAC_SYSTEMATIC_NAME>
1-tert-butyl-3-(4-chlorophenyl)pyrazolo[3,4-d]pyrimidin-4-amine

> <PUBCHEM_IUPAC_TRADITIONAL_NAME>
[1-tert-butyl-3-(4-chlorophenyl)pyrazolo[3,4-d]pyrimidin-4-yl]amine

> <PUBCHEM_IUPAC_INCHI>
InChI=1S/C15H16ClN5/c1-15(2,3)21-14-11(13(17)18-8-19-14)12(20-21)9-4-6-10(16)7-5-9/h4-8H,1-3H3,(H2,17,18,19)

> <PUBCHEM_IUPAC_INCHIKEY>
PBBRWFOVCUAONR-UHFFFAOYSA-N

> <PUBCHEM_XLOGP3_AA>
3

> <PUBCHEM_EXACT_MASS>
301.109

> <PUBCHEM_MOLECULAR_FORMULA>
C15H16ClN5

> <PUBCHEM_MOLECULAR_WEIGHT>
301.778

> <PUBCHEM_OPENEYE_CAN_SMILES>
CC(C)(C)N1C2=C(C(=N1)C3=CC=C(C=C3)Cl)C(=NC=N2)N

> <PUBCHEM_OPENEYE_ISO_SMILES>
CC(C)(C)N1C2=C(C(=N1)C3=CC=C(C=C3)Cl)C(=NC=N2)N

> <PUBCHEM_CACTVS_TPSA>
69.6

> <PUBCHEM_MONOISOTOPIC_WEIGHT>
301.109

> <PUBCHEM_TOTAL_CHARGE>
0

> <PUBCHEM_HEAVY_ATOM_COUNT>
21

> <PUBCHEM_ATOM_DEF_STEREO_COUNT>
0

> <PUBCHEM_ATOM_UDEF_STEREO_COUNT>
0

> <PUBCHEM_BOND_DEF_STEREO_COUNT>
0

> <PUBCHEM_BOND_UDEF_STEREO_COUNT>
0

> <PUBCHEM_ISOTOPIC_ATOM_COUNT>
0

> <PUBCHEM_COMPONENT_COUNT>
1

> <PUBCHEM_CACTVS_TAUTO_COUNT>
5

> <PUBCHEM_COORDINATE_TYPE>
1
5
255

> <PUBCHEM_BONDANNOTATIONS>
11  12  8
12  13  8
12  15  8
14  16  8
14  17  8
16  19  8
17  20  8
19  21  8
2  11  8
2  3  8
20  21  8
3  13  8
4  11  8
4  18  8
5  15  8
5  18  8

$$$$
5166
  -OEChem-11021605012D

 48 51  0     0  0  0  0  0  0999 V2000
   11.6872    0.5823    0.0000 F   0  0  0  0  0  0  0  0  0  0  0  0
    2.4608    0.5823    0.0000 O   0  0  0  0  0  0  0  0  0  0  0  0
    5.3419   -1.7694    0.0000 O   0  0  0  0  0  0  0  0  0  0  0  0
    6.2650    1.8184    0.0000 N   0  0  0  0  0  0  0  0  0  0  0  0
    7.5740    2.7694    0.0000 N   0  0  0  0  0  0  0  0  0  0  0  0
    6.2080   -0.2694    0.0000 N   0  0  0  0  0  0  0  0  0  0  0  0
    7.0740   -1.7694    0.0000 N   0  0  0  0  0  0  0  0  0  0  0  0
    5.3139    1.5094    0.0000 C   0  0  0  0  0  0  0  0  0  0  0  0
    5.1060    0.5312    0.0000 C   0  0  0  0  0  0  0  0  0  0  0  0
    4.5708    2.1785    0.0000 C   0  0  0  0  0  0  0  0  0  0  0  0
    4.1550    0.2222    0.0000 C   0  0  0  0  0  0  0  0  0  0  0  0
    3.6197    1.8695    0.0000 C   0  0  0  0  0  0  0  0  0  0  0  0
    3.4118    0.8913    0.0000 C   0  0  0  0  0  0  0  0  0  0  0  0
    7.0740    1.2306    0.0000 C   0  0  0  0  0  0  0  0  0  0  0  0
    6.5740    2.7694    0.0000 C   0  0  0  0  0  0  0  0  0  0  0  0
    7.8830    1.8184    0.0000 C   0  0  0  0  0  0  0  0  0  0  0  0
    7.0740    0.2306    0.0000 C   0  0  0  0  0  0  0  0  0  0  0  0
    8.8341    1.5094    0.0000 C   0  0  0  0  0  0  0  0  0  0  0  0
    7.9400   -0.2694    0.0000 C   0  0  0  0  0  0  0  0  0  0  0  0
    9.0420    0.5312    0.0000 C   0  0  0  0  0  0  0  0  0  0  0  0
    9.5772    2.1785    0.0000 C   0  0  0  0  0  0  0  0  0  0  0  0
    7.9400   -1.2694    0.0000 C   0  0  0  0  0  0  0  0  0  0  0  0
    6.2080   -1.2694    0.0000 C   0  0  0  0  0  0  0  0  0  0  0  0
    9.9930    0.2222    0.0000 C   0  0  0  0  0  0  0  0  0  0  0  0
   10.5283    1.8695    0.0000 C   0  0  0  0  0  0  0  0  0  0  0  0
   10.7362    0.8913    0.0000 C   0  0  0  0  0  0  0  0  0  0  0  0
    5.3419   -2.7694    0.0000 C   0  0  0  0  0  0  0  0  0  0  0  0
    5.7747    1.0945    0.0000 H   0  0  0  0  0  0  0  0  0  0  0  0
    5.0593    2.5602    0.0000 H   0  0  0  0  0  0  0  0  0  0  0  0
    4.2797    2.7259    0.0000 H   0  0  0  0  0  0  0  0  0  0  0  0
    5.1923   -0.0828    0.0000 H   0  0  0  0  0  0  0  0  0  0  0  0
    5.7256    0.5096    0.0000 H   0  0  0  0  0  0  0  0  0  0  0  0
    3.5334    2.4834    0.0000 H   0  0  0  0  0  0  0  0  0  0  0  0
    3.0001    1.8911    0.0000 H   0  0  0  0  0  0  0  0  0  0  0  0
    3.6664   -0.1595    0.0000 H   0  0  0  0  0  0  0  0  0  0  0  0
    4.4460   -0.3252    0.0000 H   0  0  0  0  0  0  0  0  0  0  0  0
    2.9511    1.3062    0.0000 H   0  0  0  0  0  0  0  0  0  0  0  0
    6.2096    3.2710    0.0000 H   0  0  0  0  0  0  0  0  0  0  0  0
    2.0000    0.9972    0.0000 H   0  0  0  0  0  0  0  0  0  0  0  0
    8.4770    0.0406    0.0000 H   0  0  0  0  0  0  0  0  0  0  0  0
    8.5812    0.1163    0.0000 H   0  0  0  0  0  0  0  0  0  0  0  0
    9.4483    2.7849    0.0000 H   0  0  0  0  0  0  0  0  0  0  0  0
    8.4770   -1.5794    0.0000 H   0  0  0  0  0  0  0  0  0  0  0  0
   10.1219   -0.3843    0.0000 H   0  0  0  0  0  0  0  0  0  0  0  0
   10.9890    2.2843    0.0000 H   0  0  0  0  0  0  0  0  0  0  0  0
    4.7219   -2.7694    0.0000 H   0  0  0  0  0  0  0  0  0  0  0  0
    5.3419   -3.3894    0.0000 H   0  0  0  0  0  0  0  0  0  0  0  0
    5.9619   -2.7694    0.0000 H   0  0  0  0  0  0  0  0  0  0  0  0
  1 26  1  0  0  0  0
  2 13  1  0  0  0  0
  2 39  1  0  0  0  0
  3 23  1  0  0  0  0
  3 27  1  0  0  0  0
  4  8  1  0  0  0  0
  4 14  1  0  0  0  0
  4 15  1  0  0  0  0
  5 15  2  0  0  0  0
  5 16  1  0  0  0  0
  6 17  2  0  0  0  0
  6 23  1  0  0  0  0
  7 22  1  0  0  0  0
  7 23  2  0  0  0  0
  8  9  1  0  0  0  0
  8 10  1  0  0  0  0
  8 28  1  0  0  0  0
  9 11  1  0  0  0  0
  9 31  1  0  0  0  0
  9 32  1  0  0  0  0
 10 12  1  0  0  0  0
 10 29  1  0  0  0  0
 10 30  1  0  0  0  0
 11 13  1  0  0  0  0
 11 35  1  0  0  0  0
 11 36  1  0  0  0  0
 12 13  1  0  0  0  0
 12 33  1  0  0  0  0
 12 34  1  0  0  0  0
 13 37  1  0  0  0  0
 14 16  2  0  0  0  0
 14 17  1  0  0  0  0
 15 38  1  0  0  0  0
 16 18  1  0  0  0  0
 17 19  1  0  0  0  0
 18 20  2  0  0  0  0
 18 21  1  0  0  0  0
 19 22  2  0  0  0  0
 19 40  1  0  0  0  0
 20 24  1  0  0  0  0
 20 41  1  0  0  0  0
 21 25  2  0  0  0  0
 21 42  1  0  0  0  0
 22 43  1  0  0  0  0
 24 26  2  0  0  0  0
 24 44  1  0  0  0  0
 25 26  1  0  0  0  0
 25 45  1  0  0  0  0
 27 46  1  0  0  0  0
 27 47  1  0  0  0  0
 27 48  1  0  0  0  0
M  END
> <PUBCHEM_COMPOUND_CID>
5166

> <PUBCHEM_COMPOUND_CANONICALIZED>
1

> <PUBCHEM_CACTVS_COMPLEXITY>
469

> <PUBCHEM_CACTVS_HBOND_ACCEPTOR>
6

> <PUBCHEM_CACTVS_HBOND_DONOR>
1

> <PUBCHEM_CACTVS_ROTATABLE_BOND>
4

> <PUBCHEM_CACTVS_SUBSKEYS>
AAADceB7sQAAAAAAAAAAAAAAAAAAAWAAAAA8YIAAAAAAAAAB8AAAHwAACAAADDzhng4/kJcMFgCgAzRnZACCgC0xEqAJ2CA4dJiIeKLA2dGUZAhsgALIyCewwMAOAAAAAAAAAAAAgAAAAAAAAAAAAAAAAA==

> <PUBCHEM_IUPAC_OPENEYE_NAME>
4-[4-(4-fluorophenyl)-5-(2-methoxypyrimidin-4-yl)imidazol-1-yl]cyclohexanol

> <PUBCHEM_IUPAC_CAS_NAME>
4-[4-(4-fluorophenyl)-5-(2-methoxy-4-pyrimidinyl)-1-imidazolyl]-1-cyclohexanol

> <PUBCHEM_IUPAC_NAME>
4-[4-(4-fluorophenyl)-5-(2-methoxypyrimidin-4-yl)imidazol-1-yl]cyclohexan-1-ol

> <PUBCHEM_IUPAC_SYSTEMATIC_NAME>
4-[4-(4-fluorophenyl)-5-(2-methoxypyrimidin-4-yl)imidazol-1-yl]cyclohexan-1-ol

> <PUBCHEM_IUPAC_TRADITIONAL_NAME>
4-[4-(4-fluorophenyl)-5-(2-methoxypyrimidin-4-yl)imidazol-1-yl]cyclohexanol

> <PUBCHEM_IUPAC_INCHI>
InChI=1S/C20H21FN4O2/c1-27-20-22-11-10-17(24-20)19-18(13-2-4-14(21)5-3-13)23-12-25(19)15-6-8-16(26)9-7-15/h2-5,10-12,15-16,26H,6-9H2,1H3

> <PUBCHEM_IUPAC_INCHIKEY>
ZQUSFAUAYSEREK-UHFFFAOYSA-N

> <PUBCHEM_XLOGP3_AA>
2.6

> <PUBCHEM_EXACT_MASS>
368.165

> <PUBCHEM_MOLECULAR_FORMULA>
C20H21FN4O2

> <PUBCHEM_MOLECULAR_WEIGHT>
368.412

> <PUBCHEM_OPENEYE_CAN_SMILES>
COC1=NC=CC(=N1)C2=C(N=CN2C3CCC(CC3)O)C4=CC=C(C=C4)F

> <PUBCHEM_OPENEYE_ISO_SMILES>
COC1=NC=CC(=N1)C2=C(N=CN2C3CCC(CC3)O)C4=CC=C(C=C4)F

> <PUBCHEM_CACTVS_TPSA>
73.1

> <PUBCHEM_MONOISOTOPIC_WEIGHT>
368.165

> <PUBCHEM_TOTAL_CHARGE>
0

> <PUBCHEM_HEAVY_ATOM_COUNT>
27

> <PUBCHEM_ATOM_DEF_STEREO_COUNT>
0

> <PUBCHEM_ATOM_UDEF_STEREO_COUNT>
0

> <PUBCHEM_BOND_DEF_STEREO_COUNT>
0

> <PUBCHEM_BOND_UDEF_STEREO_COUNT>
0

> <PUBCHEM_ISOTOPIC_ATOM_COUNT>
0

> <PUBCHEM_COMPONENT_COUNT>
1

> <PUBCHEM_CACTVS_TAUTO_COUNT>
1

> <PUBCHEM_COORDINATE_TYPE>
1
5
255

> <PUBCHEM_BONDANNOTATIONS>
14  16  8
17  19  8
18  20  8
18  21  8
19  22  8
20  24  8
21  25  8
24  26  8
25  26  8
4  14  8
4  15  8
5  15  8
5  16  8
6  17  8
6  23  8
7  22  8
7  23  8

$$$$
5280443
  -OEChem-11021605012D

 30 32  0     0  0  0  0  0  0999 V2000
    6.8671    0.9254    0.0000 O   0  0  0  0  0  0  0  0  0  0  0  0
    8.6155   -2.1092    0.0000 O   0  0  0  0  0  0  0  0  0  0  0  0
    6.8671   -2.0746    0.0000 O   0  0  0  0  0  0  0  0  0  0  0  0
   10.3972    0.9495    0.0000 O   0  0  0  0  0  0  0  0  0  0  0  0
    2.5369    2.4254    0.0000 O   0  0  0  0  0  0  0  0  0  0  0  0
    7.7331   -0.5746    0.0000 C   0  0  0  0  0  0  0  0  0  0  0  0
    7.7331    0.4254    0.0000 C   0  0  0  0  0  0  0  0  0  0  0  0
    6.0010    0.4254    0.0000 C   0  0  0  0  0  0  0  0  0  0  0  0
    5.1350    0.9254    0.0000 C   0  0  0  0  0  0  0  0  0  0  0  0
    6.8671   -1.0746    0.0000 C   0  0  0  0  0  0  0  0  0  0  0  0
    6.0010   -0.5746    0.0000 C   0  0  0  0  0  0  0  0  0  0  0  0
    8.6270   -1.1093    0.0000 C   0  0  0  0  0  0  0  0  0  0  0  0
    8.6270    0.9601    0.0000 C   0  0  0  0  0  0  0  0  0  0  0  0
    9.5331    0.4462    0.0000 C   0  0  0  0  0  0  0  0  0  0  0  0
    9.5331   -0.5954    0.0000 C   0  0  0  0  0  0  0  0  0  0  0  0
    5.1350    1.9254    0.0000 C   0  0  0  0  0  0  0  0  0  0  0  0
    4.2690    0.4254    0.0000 C   0  0  0  0  0  0  0  0  0  0  0  0
    4.2690    2.4254    0.0000 C   0  0  0  0  0  0  0  0  0  0  0  0
    3.4030    0.9254    0.0000 C   0  0  0  0  0  0  0  0  0  0  0  0
    3.4030    1.9254    0.0000 C   0  0  0  0  0  0  0  0  0  0  0  0
    5.4641   -0.8846    0.0000 H   0  0  0  0  0  0  0  0  0  0  0  0
    8.6199    1.5800    0.0000 H   0  0  0  0  0  0  0  0  0  0  0  0
   10.0688   -0.9075    0.0000 H   0  0  0  0  0  0  0  0  0  0  0  0
    5.6720    2.2354    0.0000 H   0  0  0  0  0  0  0  0  0  0  0  0
    4.2690   -0.1946    0.0000 H   0  0  0  0  0  0  0  0  0  0  0  0
    4.2690    3.0454    0.0000 H   0  0  0  0  0  0  0  0  0  0  0  0
    2.8660    0.6154    0.0000 H   0  0  0  0  0  0  0  0  0  0  0  0
    9.1488   -2.4254    0.0000 H   0  0  0  0  0  0  0  0  0  0  0  0
   10.9353    0.6416    0.0000 H   0  0  0  0  0  0  0  0  0  0  0  0
    2.0000    2.1154    0.0000 H   0  0  0  0  0  0  0  0  0  0  0  0
  1  7  1  0  0  0  0
  1  8  1  0  0  0  0
  2 12  1  0  0  0  0
  2 28  1  0  0  0  0
  3 10  2  0  0  0  0
  4 14  1  0  0  0  0
  4 29  1  0  0  0  0
  5 20  1  0  0  0  0
  5 30  1  0  0  0  0
  6  7  1  0  0  0  0
  6 10  1  0  0  0  0
  6 12  2  0  0  0  0
  7 13  2  0  0  0  0
  8  9  1  0  0  0  0
  8 11  2  0  0  0  0
  9 16  2  0  0  0  0
  9 17  1  0  0  0  0
 10 11  1  0  0  0  0
 11 21  1  0  0  0  0
 12 15  1  0  0  0  0
 13 14  1  0  0  0  0
 13 22  1  0  0  0  0
 14 15  2  0  0  0  0
 15 23  1  0  0  0  0
 16 18  1  0  0  0  0
 16 24  1  0  0  0  0
 17 19  2  0  0  0  0
 17 25  1  0  0  0  0
 18 20  2  0  0  0  0
 18 26  1  0  0  0  0
 19 20  1  0  0  0  0
 19 27  1  0  0  0  0
M  END
> <PUBCHEM_COMPOUND_CID>
5280443

> <PUBCHEM_COMPOUND_CANONICALIZED>
1

> <PUBCHEM_CACTVS_COMPLEXITY>
411

> <PUBCHEM_CACTVS_HBOND_ACCEPTOR>
5

> <PUBCHEM_CACTVS_HBOND_DONOR>
3

> <PUBCHEM_CACTVS_ROTATABLE_BOND>
1

> <PUBCHEM_CACTVS_SUBSKEYS>
AAADccBwOAAAAAAAAAAAAAAAAAAAAAAAAAAwYIAAAAAAAACBQAAAGgAACAAADASAmAAwBoAABgCIAqBSAAACCAAkIAAIiAEGCMgMJzaGNRqCeWCl4BUIuQeI7KzOIAAACAAIAABAAAAQABAAAAAAAAAAAA==

> <PUBCHEM_IUPAC_OPENEYE_NAME>
5,7-dihydroxy-2-(4-hydroxyphenyl)chromen-4-one

> <PUBCHEM_IUPAC_CAS_NAME>
5,7-dihydroxy-2-(4-hydroxyphenyl)-1-benzopyran-4-one

> <PUBCHEM_IUPAC_NAME>
5,7-dihydroxy-2-(4-hydroxyphenyl)chromen-4-one

> <PUBCHEM_IUPAC_SYSTEMATIC_NAME>
2-(4-hydroxyphenyl)-5,7-bis(oxidanyl)chromen-4-one

> <PUBCHEM_IUPAC_TRADITIONAL_NAME>
5,7-dihydroxy-2-(4-hydroxyphenyl)chromone

> <PUBCHEM_IUPAC_INCHI>
InChI=1S/C15H10O5/c16-9-3-1-8(2-4-9)13-7-12(19)15-11(18)5-10(17)6-14(15)20-13/h1-7,16-18H

> <PUBCHEM_IUPAC_INCHIKEY>
KZNIFHPLKGYRTM-UHFFFAOYSA-N

> <PUBCHEM_XLOGP3>
1.7

> <PUBCHEM_EXACT_MASS>
270.053

> <PUBCHEM_MOLECULAR_FORMULA>
C15H10O5

> <PUBCHEM_MOLECULAR_WEIGHT>
270.24

> <PUBCHEM_OPENEYE_CAN_SMILES>
C1=CC(=CC=C1C2=CC(=O)C3=C(C=C(C=C3O2)O)O)O

> <PUBCHEM_OPENEYE_ISO_SMILES>
C1=CC(=CC=C1C2=CC(=O)C3=C(C=C(C=C3O2)O)O)O

> <PUBCHEM_CACTVS_TPSA>
87

> <PUBCHEM_MONOISOTOPIC_WEIGHT>
270.053

> <PUBCHEM_TOTAL_CHARGE>
0

> <PUBCHEM_HEAVY_ATOM_COUNT>
20

> <PUBCHEM_ATOM_DEF_STEREO_COUNT>
0

> <PUBCHEM_ATOM_UDEF_STEREO_COUNT>
0

> <PUBCHEM_BOND_DEF_STEREO_COUNT>
0

> <PUBCHEM_BOND_UDEF_STEREO_COUNT>
0

> <PUBCHEM_ISOTOPIC_ATOM_COUNT>
0

> <PUBCHEM_COMPONENT_COUNT>
1

> <PUBCHEM_CACTVS_TAUTO_COUNT>
57

> <PUBCHEM_COORDINATE_TYPE>
1
5
255

> <PUBCHEM_BONDANNOTATIONS>
1  7  8
1  8  8
10  11  8
12  15  8
13  14  8
14  15  8
16  18  8
17  19  8
18  20  8
19  20  8
6  10  8
6  12  8
6  7  8
7  13  8
8  11  8
9  16  8
9  17  8

$$$$
5687
  -OEChem-11021605012D

 37 39  0     0  0  0  0  0  0999 V2000
    2.8660    0.6853    0.0000 O   0  0  0  0  0  0  0  0  0  0  0  0
    2.8660    2.6853    0.0000 O   0  0  0  0  0  0  0  0  0  0  0  0
    8.0437   -3.3691    0.0000 O   0  0  0  0  0  0  0  0  0  0  0  0
    6.3465   -0.3493    0.0000 N   0  0  0  0  0  0  0  0  0  0  0  0
    6.3580    2.7200    0.0000 N   0  0  0  0  0  0  0  0  0  0  0  0
    7.2641    1.1645    0.0000 N   0  0  0  0  0  0  0  0  0  0  0  0
    5.4641    1.1853    0.0000 C   0  0  0  0  0  0  0  0  0  0  0  0
    5.4641    2.1853    0.0000 C   0  0  0  0  0  0  0  0  0  0  0  0
    6.3580    0.6506    0.0000 C   0  0  0  0  0  0  0  0  0  0  0  0
    4.5981    0.6853    0.0000 C   0  0  0  0  0  0  0  0  0  0  0  0
    3.7320    1.1853    0.0000 C   0  0  0  0  0  0  0  0  0  0  0  0
    4.5981    2.6853    0.0000 C   0  0  0  0  0  0  0  0  0  0  0  0
    3.7320    2.1853    0.0000 C   0  0  0  0  0  0  0  0  0  0  0  0
    7.2067   -0.8593    0.0000 C   0  0  0  0  0  0  0  0  0  0  0  0
    7.1951   -1.8592    0.0000 C   0  0  0  0  0  0  0  0  0  0  0  0
    8.0784   -0.3693    0.0000 C   0  0  0  0  0  0  0  0  0  0  0  0
    7.2641    2.2061    0.0000 C   0  0  0  0  0  0  0  0  0  0  0  0
    8.0553   -2.3692    0.0000 C   0  0  0  0  0  0  0  0  0  0  0  0
    8.9386   -0.8793    0.0000 C   0  0  0  0  0  0  0  0  0  0  0  0
    8.9270   -1.8792    0.0000 C   0  0  0  0  0  0  0  0  0  0  0  0
    2.0000    1.1853    0.0000 C   0  0  0  0  0  0  0  0  0  0  0  0
    2.8660    3.6853    0.0000 C   0  0  0  0  0  0  0  0  0  0  0  0
    4.5981    0.0653    0.0000 H   0  0  0  0  0  0  0  0  0  0  0  0
    4.5981    3.3053    0.0000 H   0  0  0  0  0  0  0  0  0  0  0  0
    5.8060   -0.6531    0.0000 H   0  0  0  0  0  0  0  0  0  0  0  0
    6.6546   -2.1630    0.0000 H   0  0  0  0  0  0  0  0  0  0  0  0
    8.0856    0.2506    0.0000 H   0  0  0  0  0  0  0  0  0  0  0  0
    7.7998    2.5182    0.0000 H   0  0  0  0  0  0  0  0  0  0  0  0
    9.4791   -0.5755    0.0000 H   0  0  0  0  0  0  0  0  0  0  0  0
    9.4604   -2.1954    0.0000 H   0  0  0  0  0  0  0  0  0  0  0  0
    2.3100    1.7222    0.0000 H   0  0  0  0  0  0  0  0  0  0  0  0
    1.4631    1.4953    0.0000 H   0  0  0  0  0  0  0  0  0  0  0  0
    1.6900    0.6484    0.0000 H   0  0  0  0  0  0  0  0  0  0  0  0
    3.4860    3.6853    0.0000 H   0  0  0  0  0  0  0  0  0  0  0  0
    2.8660    4.3053    0.0000 H   0  0  0  0  0  0  0  0  0  0  0  0
    2.2460    3.6853    0.0000 H   0  0  0  0  0  0  0  0  0  0  0  0
    8.5770   -3.6853    0.0000 H   0  0  0  0  0  0  0  0  0  0  0  0
  1 11  1  0  0  0  0
  1 21  1  0  0  0  0
  2 13  1  0  0  0  0
  2 22  1  0  0  0  0
  3 18  1  0  0  0  0
  3 37  1  0  0  0  0
  4  9  1  0  0  0  0
  4 14  1  0  0  0  0
  4 25  1  0  0  0  0
  5  8  1  0  0  0  0
  5 17  2  0  0  0  0
  6  9  2  0  0  0  0
  6 17  1  0  0  0  0
  7  8  1  0  0  0  0
  7  9  1  0  0  0  0
  7 10  2  0  0  0  0
  8 12  2  0  0  0  0
 10 11  1  0  0  0  0
 10 23  1  0  0  0  0
 11 13  2  0  0  0  0
 12 13  1  0  0  0  0
 12 24  1  0  0  0  0
 14 15  2  0  0  0  0
 14 16  1  0  0  0  0
 15 18  1  0  0  0  0
 15 26  1  0  0  0  0
 16 19  2  0  0  0  0
 16 27  1  0  0  0  0
 17 28  1  0  0  0  0
 18 20  2  0  0  0  0
 19 20  1  0  0  0  0
 19 29  1  0  0  0  0
 20 30  1  0  0  0  0
 21 31  1  0  0  0  0
 21 32  1  0  0  0  0
 21 33  1  0  0  0  0
 22 34  1  0  0  0  0
 22 35  1  0  0  0  0
 22 36  1  0  0  0  0
M  END
> <PUBCHEM_COMPOUND_CID>
5687

> <PUBCHEM_COMPOUND_CANONICALIZED>
1

> <PUBCHEM_CACTVS_COMPLEXITY>
358

> <PUBCHEM_CACTVS_HBOND_ACCEPTOR>
6

> <PUBCHEM_CACTVS_HBOND_DONOR>
2

> <PUBCHEM_CACTVS_ROTATABLE_BOND>
4

> <PUBCHEM_CACTVS_SUBSKEYS>
AAADccB7MAAAAAAAAAAAAAAAAAAAAAAAAAA8YIAAAAAAAACx9AAAHgAQCAAADAyBngY39vbIFgCgAyZjZACCiCkxIqAJ2CA+7JiNLuLG+duEdCpu0BvK+Cew0BMOIEABAgACQABAgAIEAASAAAAAAAAAAA==

> <PUBCHEM_IUPAC_OPENEYE_NAME>
3-[(6,7-dimethoxyquinazolin-4-yl)amino]phenol

> <PUBCHEM_IUPAC_CAS_NAME>
3-[(6,7-dimethoxy-4-quinazolinyl)amino]phenol

> <PUBCHEM_IUPAC_NAME>
3-[(6,7-dimethoxyquinazolin-4-yl)amino]phenol

> <PUBCHEM_IUPAC_SYSTEMATIC_NAME>
3-[(6,7-dimethoxyquinazolin-4-yl)amino]phenol

> <PUBCHEM_IUPAC_TRADITIONAL_NAME>
3-[(6,7-dimethoxyquinazolin-4-yl)amino]phenol

> <PUBCHEM_IUPAC_INCHI>
InChI=1S/C16H15N3O3/c1-21-14-7-12-13(8-15(14)22-2)17-9-18-16(12)19-10-4-3-5-11(20)6-10/h3-9,20H,1-2H3,(H,17,18,19)

> <PUBCHEM_IUPAC_INCHIKEY>
BNDYIYYKEIXHNK-UHFFFAOYSA-N

> <PUBCHEM_XLOGP3_AA>
3

> <PUBCHEM_EXACT_MASS>
297.111

> <PUBCHEM_MOLECULAR_FORMULA>
C16H15N3O3

> <PUBCHEM_MOLECULAR_WEIGHT>
297.314

> <PUBCHEM_OPENEYE_CAN_SMILES>
COC1=C(C=C2C(=C1)C(=NC=N2)NC3=CC(=CC=C3)O)OC

> <PUBCHEM_OPENEYE_ISO_SMILES>
COC1=C(C=C2C(=C1)C(=NC=N2)NC3=CC(=CC=C3)O)OC

> <PUBCHEM_CACTVS_TPSA>
76.5

> <PUBCHEM_MONOISOTOPIC_WEIGHT>
297.111

> <PUBCHEM_TOTAL_CHARGE>
0

> <PUBCHEM_HEAVY_ATOM_COUNT>
22

> <PUBCHEM_ATOM_DEF_STEREO_COUNT>
0

> <PUBCHEM_ATOM_UDEF_STEREO_COUNT>
0

> <PUBCHEM_BOND_DEF_STEREO_COUNT>
0

> <PUBCHEM_BOND_UDEF_STEREO_COUNT>
0

> <PUBCHEM_ISOTOPIC_ATOM_COUNT>
0

> <PUBCHEM_COMPONENT_COUNT>
1

> <PUBCHEM_CACTVS_TAUTO_COUNT>
17

> <PUBCHEM_COORDINATE_TYPE>
1
5
255

> <PUBCHEM_BONDANNOTATIONS>
10  11  8
11  13  8
12  13  8
14  15  8
14  16  8
15  18  8
16  19  8
18  20  8
19  20  8
5  17  8
5  8  8
6  17  8
6  9  8
7  10  8
7  8  8
7  9  8
8  12  8

$$$$
3896
  -OEChem-11021605012D

 33 34  0     0  0  0  0  0  0999 V2000
    6.0010   -3.2500    0.0000 O   0  0  0  0  0  0  0  0  0  0  0  0
    2.5369    1.7500    0.0000 O   0  0  0  0  0  0  0  0  0  0  0  0
    9.4651   -1.2500    0.0000 O   0  0  0  0  0  0  0  0  0  0  0  0
    5.1350    3.2500    0.0000 O   0  0  0  0  0  0  0  0  0  0  0  0
    3.4030    3.2500    0.0000 O   0  0  0  0  0  0  0  0  0  0  0  0
    6.0010   -0.2500    0.0000 N   0  0  0  0  0  0  0  0  0  0  0  0
    6.0010   -1.2500    0.0000 C   0  0  0  0  0  0  0  0  0  0  0  0
    6.8671   -1.7500    0.0000 C   0  0  0  0  0  0  0  0  0  0  0  0
    5.1350    0.2500    0.0000 C   0  0  0  0  0  0  0  0  0  0  0  0
    6.8671   -2.7500    0.0000 C   0  0  0  0  0  0  0  0  0  0  0  0
    7.7331   -1.2500    0.0000 C   0  0  0  0  0  0  0  0  0  0  0  0
    5.1350    1.2500    0.0000 C   0  0  0  0  0  0  0  0  0  0  0  0
    4.2690   -0.2500    0.0000 C   0  0  0  0  0  0  0  0  0  0  0  0
    4.2690    1.7500    0.0000 C   0  0  0  0  0  0  0  0  0  0  0  0
    8.5991   -1.7500    0.0000 C   0  0  0  0  0  0  0  0  0  0  0  0
    3.4030    1.2500    0.0000 C   0  0  0  0  0  0  0  0  0  0  0  0
    7.7331   -3.2500    0.0000 C   0  0  0  0  0  0  0  0  0  0  0  0
    3.4030    0.2500    0.0000 C   0  0  0  0  0  0  0  0  0  0  0  0
    8.5991   -2.7500    0.0000 C   0  0  0  0  0  0  0  0  0  0  0  0
    4.2690    2.7500    0.0000 C   0  0  0  0  0  0  0  0  0  0  0  0
    5.3905   -1.1423    0.0000 H   0  0  0  0  0  0  0  0  0  0  0  0
    5.7890   -1.8326    0.0000 H   0  0  0  0  0  0  0  0  0  0  0  0
    6.5380    0.0600    0.0000 H   0  0  0  0  0  0  0  0  0  0  0  0
    7.7331   -0.6300    0.0000 H   0  0  0  0  0  0  0  0  0  0  0  0
    5.6720    1.5600    0.0000 H   0  0  0  0  0  0  0  0  0  0  0  0
    4.2690   -0.8700    0.0000 H   0  0  0  0  0  0  0  0  0  0  0  0
    2.8660   -0.0600    0.0000 H   0  0  0  0  0  0  0  0  0  0  0  0
    7.7331   -3.8700    0.0000 H   0  0  0  0  0  0  0  0  0  0  0  0
    9.1360   -3.0600    0.0000 H   0  0  0  0  0  0  0  0  0  0  0  0
    6.0010   -3.8700    0.0000 H   0  0  0  0  0  0  0  0  0  0  0  0
    2.0000    1.4400    0.0000 H   0  0  0  0  0  0  0  0  0  0  0  0
   10.0021   -1.5600    0.0000 H   0  0  0  0  0  0  0  0  0  0  0  0
    5.1350    3.8700    0.0000 H   0  0  0  0  0  0  0  0  0  0  0  0
  1 10  1  0  0  0  0
  1 30  1  0  0  0  0
  2 16  1  0  0  0  0
  2 31  1  0  0  0  0
  3 15  1  0  0  0  0
  3 32  1  0  0  0  0
  4 20  1  0  0  0  0
  4 33  1  0  0  0  0
  5 20  2  0  0  0  0
  6  7  1  0  0  0  0
  6  9  1  0  0  0  0
  6 23  1  0  0  0  0
  7  8  1  0  0  0  0
  7 21  1  0  0  0  0
  7 22  1  0  0  0  0
  8 10  2  0  0  0  0
  8 11  1  0  0  0  0
  9 12  2  0  0  0  0
  9 13  1  0  0  0  0
 10 17  1  0  0  0  0
 11 15  2  0  0  0  0
 11 24  1  0  0  0  0
 12 14  1  0  0  0  0
 12 25  1  0  0  0  0
 13 18  2  0  0  0  0
 13 26  1  0  0  0  0
 14 16  2  0  0  0  0
 14 20  1  0  0  0  0
 15 19  1  0  0  0  0
 16 18  1  0  0  0  0
 17 19  2  0  0  0  0
 17 28  1  0  0  0  0
 18 27  1  0  0  0  0
 19 29  1  0  0  0  0
M  END
> <PUBCHEM_COMPOUND_CID>
3896

> <PUBCHEM_COMPOUND_CANONICALIZED>
1

> <PUBCHEM_CACTVS_COMPLEXITY>
338

> <PUBCHEM_CACTVS_HBOND_ACCEPTOR>
6

> <PUBCHEM_CACTVS_HBOND_DONOR>
5

> <PUBCHEM_CACTVS_ROTATABLE_BOND>
4

> <PUBCHEM_CACTVS_SUBSKEYS>
AAADccByOAAAAAAAAAAAAAAAAAAAAAAAAAAwYAAAAAAAAAABQAAAHgAQCAAADAzBmAQwzoLAAgCIAiTSSACCAAAlIgAIiIEObMgIJzbClZOEcUhn8BHI2Yf8yDCOAUABQAAIAAACgAKAABAAAAAAAAAAAA==

> <PUBCHEM_IUPAC_OPENEYE_NAME>
5-[(2,5-dihydroxyphenyl)methylamino]-2-hydroxy-benzoic acid

> <PUBCHEM_IUPAC_CAS_NAME>
5-[(2,5-dihydroxyphenyl)methylamino]-2-hydroxybenzoic acid

> <PUBCHEM_IUPAC_NAME>
5-[(2,5-dihydroxyphenyl)methylamino]-2-hydroxybenzoic acid

> <PUBCHEM_IUPAC_SYSTEMATIC_NAME>
5-[[2,5-bis(oxidanyl)phenyl]methylamino]-2-oxidanyl-benzoic acid

> <PUBCHEM_IUPAC_TRADITIONAL_NAME>
5-[(2,5-dihydroxybenzyl)amino]-2-hydroxy-benzoic acid

> <PUBCHEM_IUPAC_INCHI>
InChI=1S/C14H13NO5/c16-10-2-4-12(17)8(5-10)7-15-9-1-3-13(18)11(6-9)14(19)20/h1-6,15-18H,7H2,(H,19,20)

> <PUBCHEM_IUPAC_INCHIKEY>
LULATDWLDJOKCX-UHFFFAOYSA-N

> <PUBCHEM_XLOGP3_AA>
2.4

> <PUBCHEM_EXACT_MASS>
275.079

> <PUBCHEM_MOLECULAR_FORMULA>
C14H13NO5

> <PUBCHEM_MOLECULAR_WEIGHT>
275.26

> <PUBCHEM_OPENEYE_CAN_SMILES>
C1=CC(=C(C=C1NCC2=C(C=CC(=C2)O)O)C(=O)O)O

> <PUBCHEM_OPENEYE_ISO_SMILES>
C1=CC(=C(C=C1NCC2=C(C=CC(=C2)O)O)C(=O)O)O

> <PUBCHEM_CACTVS_TPSA>
110

> <PUBCHEM_MONOISOTOPIC_WEIGHT>
275.079

> <PUBCHEM_TOTAL_CHARGE>
0

> <PUBCHEM_HEAVY_ATOM_COUNT>
20

> <PUBCHEM_ATOM_DEF_STEREO_COUNT>
0

> <PUBCHEM_ATOM_UDEF_STEREO_COUNT>
0

> <PUBCHEM_BOND_DEF_STEREO_COUNT>
0

> <PUBCHEM_BOND_UDEF_STEREO_COUNT>
0

> <PUBCHEM_ISOTOPIC_ATOM_COUNT>
0

> <PUBCHEM_COMPONENT_COUNT>
1

> <PUBCHEM_CACTVS_TAUTO_COUNT>
63

> <PUBCHEM_COORDINATE_TYPE>
1
5
255

> <PUBCHEM_BONDANNOTATIONS>
10  17  8
11  15  8
12  14  8
13  18  8
14  16  8
15  19  8
16  18  8
17  19  8
8  10  8
8  11  8
9  12  8
9  13  8

$$$$
5280569
  -OEChem-11021605012D

 19 20  0     0  0  0  0  0  0999 V2000
    6.0290   -0.3970    0.0000 O   0  0  0  0  0  0  0  0  0  0  0  0
    4.2690   -1.3623    0.0000 O   0  0  0  0  0  0  0  0  0  0  0  0
    2.5369   -0.3623    0.0000 O   0  0  0  0  0  0  0  0  0  0  0  0
    7.7991   -0.3865    0.0000 O   0  0  0  0  0  0  0  0  0  0  0  0
    5.1350    1.1377    0.0000 C   0  0  0  0  0  0  0  0  0  0  0  0
    5.1350    0.1377    0.0000 C   0  0  0  0  0  0  0  0  0  0  0  0
    4.2690   -0.3623    0.0000 C   0  0  0  0  0  0  0  0  0  0  0  0
    4.2690    1.6377    0.0000 C   0  0  0  0  0  0  0  0  0  0  0  0
    3.4030    0.1377    0.0000 C   0  0  0  0  0  0  0  0  0  0  0  0
    6.0290    1.6723    0.0000 C   0  0  0  0  0  0  0  0  0  0  0  0
    3.4030    1.1377    0.0000 C   0  0  0  0  0  0  0  0  0  0  0  0
    6.9350    1.1585    0.0000 C   0  0  0  0  0  0  0  0  0  0  0  0
    6.9350    0.1169    0.0000 C   0  0  0  0  0  0  0  0  0  0  0  0
    4.2690    2.2577    0.0000 H   0  0  0  0  0  0  0  0  0  0  0  0
    6.0218    2.2923    0.0000 H   0  0  0  0  0  0  0  0  0  0  0  0
    2.8660    1.4477    0.0000 H   0  0  0  0  0  0  0  0  0  0  0  0
    7.4708    1.4706    0.0000 H   0  0  0  0  0  0  0  0  0  0  0  0
    3.7320   -1.6723    0.0000 H   0  0  0  0  0  0  0  0  0  0  0  0
    2.0000   -0.0523    0.0000 H   0  0  0  0  0  0  0  0  0  0  0  0
  1  6  1  0  0  0  0
  1 13  1  0  0  0  0
  2  7  1  0  0  0  0
  2 18  1  0  0  0  0
  3  9  1  0  0  0  0
  3 19  1  0  0  0  0
  4 13  2  0  0  0  0
  5  6  2  0  0  0  0
  5  8  1  0  0  0  0
  5 10  1  0  0  0  0
  6  7  1  0  0  0  0
  7  9  2  0  0  0  0
  8 11  2  0  0  0  0
  8 14  1  0  0  0  0
  9 11  1  0  0  0  0
 10 12  2  0  0  0  0
 10 15  1  0  0  0  0
 11 16  1  0  0  0  0
 12 13  1  0  0  0  0
 12 17  1  0  0  0  0
M  END
> <PUBCHEM_COMPOUND_CID>
5280569

> <PUBCHEM_COMPOUND_CANONICALIZED>
1

> <PUBCHEM_CACTVS_COMPLEXITY>
248

> <PUBCHEM_CACTVS_HBOND_ACCEPTOR>
4

> <PUBCHEM_CACTVS_HBOND_DONOR>
2

> <PUBCHEM_CACTVS_ROTATABLE_BOND>
0

> <PUBCHEM_CACTVS_SUBSKEYS>
AAADcYBwOAAAAAAAAAAAAAAAAAAAAAAAAAAwQAAAAAAAAACBAAAAGgAACAAADASAmAAwDoAABgCIAiDSCAACCAAgIAAIiAAGiMgNJyKGMRqCeiOlwBULuYeA4DwOIAABCAAIQABAAAIQABCAAAAAAAAAAA==

> <PUBCHEM_IUPAC_OPENEYE_NAME>
7,8-dihydroxychromen-2-one

> <PUBCHEM_IUPAC_CAS_NAME>
7,8-dihydroxy-1-benzopyran-2-one

> <PUBCHEM_IUPAC_NAME>
7,8-dihydroxychromen-2-one

> <PUBCHEM_IUPAC_SYSTEMATIC_NAME>
7,8-bis(oxidanyl)chromen-2-one

> <PUBCHEM_IUPAC_TRADITIONAL_NAME>
daphnetin

> <PUBCHEM_IUPAC_INCHI>
InChI=1S/C9H6O4/c10-6-3-1-5-2-4-7(11)13-9(5)8(6)12/h1-4,10,12H

> <PUBCHEM_IUPAC_INCHIKEY>
ATEFPOUAMCWAQS-UHFFFAOYSA-N

> <PUBCHEM_XLOGP3_AA>
1.2

> <PUBCHEM_EXACT_MASS>
178.027

> <PUBCHEM_MOLECULAR_FORMULA>
C9H6O4

> <PUBCHEM_MOLECULAR_WEIGHT>
178.143

> <PUBCHEM_OPENEYE_CAN_SMILES>
C1=CC(=C(C2=C1C=CC(=O)O2)O)O

> <PUBCHEM_OPENEYE_ISO_SMILES>
C1=CC(=C(C2=C1C=CC(=O)O2)O)O

> <PUBCHEM_CACTVS_TPSA>
66.8

> <PUBCHEM_MONOISOTOPIC_WEIGHT>
178.027

> <PUBCHEM_TOTAL_CHARGE>
0

> <PUBCHEM_HEAVY_ATOM_COUNT>
13

> <PUBCHEM_ATOM_DEF_STEREO_COUNT>
0

> <PUBCHEM_ATOM_UDEF_STEREO_COUNT>
0

> <PUBCHEM_BOND_DEF_STEREO_COUNT>
0

> <PUBCHEM_BOND_UDEF_STEREO_COUNT>
0

> <PUBCHEM_ISOTOPIC_ATOM_COUNT>
0

> <PUBCHEM_COMPONENT_COUNT>
1

> <PUBCHEM_CACTVS_TAUTO_COUNT>
16

> <PUBCHEM_COORDINATE_TYPE>
1
5
255

> <PUBCHEM_BONDANNOTATIONS>
1  13  8
1  6  8
10  12  8
12  13  8
5  10  8
5  6  8
5  8  8
6  7  8
7  9  8
8  11  8
9  11  8

$$$$
45266067
  -OEChem-11021605012D

 58 62  0     1  0  0  0  0  0999 V2000
    5.8176    0.0000    0.0000 Cl  0  0  0  0  0  0  0  0  0  0  0  0
    6.1076    3.2435    0.0000 O   0  0  0  0  0  0  0  0  0  0  0  0
    2.6054    3.5980    0.0000 O   0  0  0  0  0  0  0  0  0  0  0  0
    8.3526    5.9458    0.0000 N   0  0  0  0  0  0  0  0  0  0  0  0
   12.0293    5.8315    0.0000 N   0  0  0  0  0  0  0  0  0  0  0  0
    3.1446    7.1624    0.0000 N   0  0  0  0  0  0  0  0  0  0  0  0
    4.3284    3.1434    0.0000 N   0  0  0  0  0  0  0  0  0  0  0  0
   10.3799    6.3604    0.0000 C   0  0  3  0  0  0  0  0  0  0  0  0
   10.0581    5.3698    0.0000 C   0  0  0  0  0  0  0  0  0  0  0  0
    9.6770    7.1291    0.0000 C   0  0  0  0  0  0  0  0  0  0  0  0
    9.0376    5.1611    0.0000 C   0  0  0  0  0  0  0  0  0  0  0  0
    8.6616    6.8969    0.0000 C   0  0  0  0  0  0  0  0  0  0  0  0
    7.3526    5.9458    0.0000 C   0  0  0  0  0  0  0  0  0  0  0  0
   11.3573    6.5721    0.0000 C   0  0  0  0  0  0  0  0  0  0  0  0
    7.0436    6.8969    0.0000 C   0  0  0  0  0  0  0  0  0  0  0  0
    7.8526    7.4846    0.0000 C   0  0  0  0  0  0  0  0  0  0  0  0
    6.6676    5.1611    0.0000 C   0  0  0  0  0  0  0  0  0  0  0  0
    5.6471    5.3698    0.0000 C   0  0  0  0  0  0  0  0  0  0  0  0
    6.0282    7.1291    0.0000 C   0  0  0  0  0  0  0  0  0  0  0  0
    5.3252    6.3604    0.0000 C   0  0  0  0  0  0  0  0  0  0  0  0
    4.9808    4.6241    0.0000 C   0  0  0  0  0  0  0  0  0  0  0  0
    3.9859    4.7247    0.0000 C   0  0  0  0  0  0  0  0  0  0  0  0
    3.4826    5.5888    0.0000 C   0  0  0  0  0  0  0  0  0  0  0  0
    5.1925    3.6467    0.0000 C   0  0  0  0  0  0  0  0  0  0  0  0
    2.4935    5.6881    0.0000 C   0  0  0  0  0  0  0  0  0  0  0  0
    3.5827    3.8096    0.0000 C   0  0  0  0  0  0  0  0  0  0  0  0
    2.2835    6.6658    0.0000 C   0  0  0  0  0  0  0  0  0  0  0  0
    3.8842    6.4982    0.0000 C   0  0  0  0  0  0  0  0  0  0  0  0
    1.7518    5.0174    0.0000 C   0  0  0  0  0  0  0  0  0  0  0  0
    1.3318    6.9728    0.0000 C   0  0  0  0  0  0  0  0  0  0  0  0
    3.2488    8.1570    0.0000 C   0  0  0  0  0  0  0  0  0  0  0  0
    0.8000    5.3244    0.0000 C   0  0  0  0  0  0  0  0  0  0  0  0
    0.5901    6.3021    0.0000 C   0  0  0  0  0  0  0  0  0  0  0  0
   10.7957    5.9005    0.0000 H   0  0  0  0  0  0  0  0  0  0  0  0
   10.0765    4.7500    0.0000 H   0  0  0  0  0  0  0  0  0  0  0  0
   10.6718    5.2819    0.0000 H   0  0  0  0  0  0  0  0  0  0  0  0
   10.1994    7.4630    0.0000 H   0  0  0  0  0  0  0  0  0  0  0  0
    9.4374    7.7009    0.0000 H   0  0  0  0  0  0  0  0  0  0  0  0
    8.5076    4.8393    0.0000 H   0  0  0  0  0  0  0  0  0  0  0  0
    9.2639    4.5838    0.0000 H   0  0  0  0  0  0  0  0  0  0  0  0
   11.8818    6.9027    0.0000 H   0  0  0  0  0  0  0  0  0  0  0  0
   11.1228    7.1460    0.0000 H   0  0  0  0  0  0  0  0  0  0  0  0
    7.8526    8.1046    0.0000 H   0  0  0  0  0  0  0  0  0  0  0  0
    6.8660    4.5737    0.0000 H   0  0  0  0  0  0  0  0  0  0  0  0
    5.8434    7.7209    0.0000 H   0  0  0  0  0  0  0  0  0  0  0  0
    4.7193    6.4917    0.0000 H   0  0  0  0  0  0  0  0  0  0  0  0
   12.6352    5.9628    0.0000 H   0  0  0  0  0  0  0  0  0  0  0  0
   11.8400    5.2412    0.0000 H   0  0  0  0  0  0  0  0  0  0  0  0
    4.4904    6.6284    0.0000 H   0  0  0  0  0  0  0  0  0  0  0  0
    4.2660    2.5265    0.0000 H   0  0  0  0  0  0  0  0  0  0  0  0
    1.8820    4.4112    0.0000 H   0  0  0  0  0  0  0  0  0  0  0  0
    1.2016    7.5790    0.0000 H   0  0  0  0  0  0  0  0  0  0  0  0
    3.8654    8.0924    0.0000 H   0  0  0  0  0  0  0  0  0  0  0  0
    3.3133    8.7736    0.0000 H   0  0  0  0  0  0  0  0  0  0  0  0
    2.6321    8.2215    0.0000 H   0  0  0  0  0  0  0  0  0  0  0  0
    0.3402    4.9085    0.0000 H   0  0  0  0  0  0  0  0  0  0  0  0
    0.0000    6.4924    0.0000 H   0  0  0  0  0  0  0  0  0  0  0  0
    6.8176    0.0000    0.0000 H   0  0  0  0  0  0  0  0  0  0  0  0
  1 58  1  0  0  0  0
  2 24  2  0  0  0  0
  3 26  2  0  0  0  0
  4 11  1  0  0  0  0
  4 12  1  0  0  0  0
  4 13  1  0  0  0  0
  5 14  1  0  0  0  0
  5 47  1  0  0  0  0
  5 48  1  0  0  0  0
  6 27  1  0  0  0  0
  6 28  1  0  0  0  0
  6 31  1  0  0  0  0
  7 24  1  0  0  0  0
  7 26  1  0  0  0  0
  7 50  1  0  0  0  0
  8  9  1  0  0  0  0
  8 10  1  0  0  0  0
  8 14  1  0  0  0  0
  8 34  1  0  0  0  0
  9 11  1  0  0  0  0
  9 35  1  0  0  0  0
  9 36  1  0  0  0  0
 10 12  1  0  0  0  0
 10 37  1  0  0  0  0
 10 38  1  0  0  0  0
 11 39  1  0  0  0  0
 11 40  1  0  0  0  0
 12 16  2  0  0  0  0
 13 15  2  0  0  0  0
 13 17  1  0  0  0  0
 14 41  1  0  0  0  0
 14 42  1  0  0  0  0
 15 16  1  0  0  0  0
 15 19  1  0  0  0  0
 16 43  1  0  0  0  0
 17 18  2  0  0  0  0
 17 44  1  0  0  0  0
 18 20  1  0  0  0  0
 18 21  1  0  0  0  0
 19 20  2  0  0  0  0
 19 45  1  0  0  0  0
 20 46  1  0  0  0  0
 21 22  2  0  0  0  0
 21 24  1  0  0  0  0
 22 23  1  0  0  0  0
 22 26  1  0  0  0  0
 23 25  1  0  0  0  0
 23 28  2  0  0  0  0
 25 27  1  0  0  0  0
 25 29  2  0  0  0  0
 27 30  2  0  0  0  0
 28 49  1  0  0  0  0
 29 32  1  0  0  0  0
 29 51  1  0  0  0  0
 30 33  1  0  0  0  0
 30 52  1  0  0  0  0
 31 53  1  0  0  0  0
 31 54  1  0  0  0  0
 31 55  1  0  0  0  0
 32 33  2  0  0  0  0
 32 56  1  0  0  0  0
 33 57  1  0  0  0  0
M  END
> <PUBCHEM_COMPOUND_CID>
45266067

> <PUBCHEM_COMPOUND_CANONICALIZED>
1

> <PUBCHEM_CACTVS_COMPLEXITY>
825

> <PUBCHEM_CACTVS_HBOND_ACCEPTOR>
3

> <PUBCHEM_CACTVS_HBOND_DONOR>
3

> <PUBCHEM_CACTVS_ROTATABLE_BOND>
3

> <PUBCHEM_CACTVS_SUBSKEYS>
AAADceB7sAAEAAAAAAAAAAAAAAAAAWLEAAA8YIAAAAAAAFgB/gAAHgAQAAAADQjBngQ+wPPMEACoAzV3VACCgCAxAiAI2KE4ZNgIIPLAlZGEIAhglCDIyQccicCewAAAQAACAACAAACAAAQAAAAAAAAAAA==

> <PUBCHEM_IUPAC_OPENEYE_NAME>
3-[8-(aminomethyl)-6,7,8,9-tetrahydropyrido[1,2-a]indol-3-yl]-4-(1-methylindol-3-yl)pyrrole-2,5-dione;hydrochloride

> <PUBCHEM_IUPAC_CAS_NAME>
3-[8-(aminomethyl)-6,7,8,9-tetrahydropyrido[1,2-a]indol-3-yl]-4-(1-methyl-3-indolyl)pyrrole-2,5-dione;hydrochloride

> <PUBCHEM_IUPAC_NAME>
3-[8-(aminomethyl)-6,7,8,9-tetrahydropyrido[1,2-a]indol-3-yl]-4-(1-methylindol-3-yl)pyrrole-2,5-dione;hydrochloride

> <PUBCHEM_IUPAC_SYSTEMATIC_NAME>
3-[8-(aminomethyl)-6,7,8,9-tetrahydropyrido[1,2-a]indol-3-yl]-4-(1-methylindol-3-yl)pyrrole-2,5-dione;hydrochloride

> <PUBCHEM_IUPAC_TRADITIONAL_NAME>
3-[8-(aminomethyl)-6,7,8,9-tetrahydropyrid[1,2-a]indol-3-yl]-4-(1-methylindol-3-yl)-3-pyrroline-2,5-quinone;hydrochloride

> <PUBCHEM_IUPAC_INCHI>
InChI=1S/C26H24N4O2.ClH/c1-29-14-20(19-4-2-3-5-21(19)29)24-23(25(31)28-26(24)32)17-7-6-16-11-18-10-15(13-27)8-9-30(18)22(16)12-17;/h2-7,11-12,14-15H,8-10,13,27H2,1H3,(H,28,31,32);1H

> <PUBCHEM_IUPAC_INCHIKEY>
MKUURCYBUTWIJT-UHFFFAOYSA-N

> <PUBCHEM_EXACT_MASS>
460.167

> <PUBCHEM_MOLECULAR_FORMULA>
C26H25ClN4O2

> <PUBCHEM_MOLECULAR_WEIGHT>
460.962

> <PUBCHEM_OPENEYE_CAN_SMILES>
CN1C=C(C2=CC=CC=C21)C3=C(C(=O)NC3=O)C4=CC5=C(C=C4)C=C6N5CCC(C6)CN.Cl

> <PUBCHEM_OPENEYE_ISO_SMILES>
CN1C=C(C2=CC=CC=C21)C3=C(C(=O)NC3=O)C4=CC5=C(C=C4)C=C6N5CCC(C6)CN.Cl

> <PUBCHEM_CACTVS_TPSA>
82

> <PUBCHEM_MONOISOTOPIC_WEIGHT>
460.167

> <PUBCHEM_TOTAL_CHARGE>
0

> <PUBCHEM_HEAVY_ATOM_COUNT>
33

> <PUBCHEM_ATOM_DEF_STEREO_COUNT>
0

> <PUBCHEM_ATOM_UDEF_STEREO_COUNT>
1

> <PUBCHEM_BOND_DEF_STEREO_COUNT>
0

> <PUBCHEM_BOND_UDEF_STEREO_COUNT>
0

> <PUBCHEM_ISOTOPIC_ATOM_COUNT>
0

> <PUBCHEM_COMPONENT_COUNT>
2

> <PUBCHEM_CACTVS_TAUTO_COUNT>
3

> <PUBCHEM_COORDINATE_TYPE>
1
5
255

> <PUBCHEM_BONDANNOTATIONS>
12  16  8
13  15  8
13  17  8
15  16  8
15  19  8
17  18  8
18  20  8
19  20  8
23  25  8
23  28  8
25  27  8
25  29  8
27  30  8
29  32  8
30  33  8
32  33  8
4  12  8
4  13  8
6  27  8
6  28  8
8  14  3

$$$$
5894
  -OEChem-11021605012D

 32 34  0     1  0  0  0  0  0999 V2000
    2.0000   -1.3284    0.0000 Cl  0  0  0  0  0  0  0  0  0  0  0  0
    2.0000   -3.3284    0.0000 Cl  0  0  0  0  0  0  0  0  0  0  0  0
    5.2686    0.2369    0.0000 O   0  0  0  0  0  0  0  0  0  0  0  0
    7.6146   -0.8550    0.0000 O   0  0  0  0  0  0  0  0  0  0  0  0
    7.6183    1.3206    0.0000 O   0  0  0  0  0  0  0  0  0  0  0  0
    6.2208    2.7384    0.0000 O   0  0  0  0  0  0  0  0  0  0  0  0
    5.5443   -1.5237    0.0000 N   0  0  0  0  0  0  0  0  0  0  0  0
    5.5443   -3.1332    0.0000 N   0  0  0  0  0  0  0  0  0  0  0  0
    5.8550   -0.5732    0.0000 C   0  0  1  0  0  0  0  0  0  0  0  0
    6.8066   -0.2658    0.0000 C   0  0  1  0  0  0  0  0  0  0  0  0
    6.8083    0.7342    0.0000 C   0  0  1  0  0  0  0  0  0  0  0  0
    5.8578    1.0449    0.0000 C   0  0  1  0  0  0  0  0  0  0  0  0
    5.5504    1.9964    0.0000 C   0  0  0  0  0  0  0  0  0  0  0  0
    4.5981   -1.8284    0.0000 C   0  0  0  0  0  0  0  0  0  0  0  0
    6.1279   -2.3284    0.0000 C   0  0  0  0  0  0  0  0  0  0  0  0
    4.5981   -2.8284    0.0000 C   0  0  0  0  0  0  0  0  0  0  0  0
    3.7320   -1.3284    0.0000 C   0  0  0  0  0  0  0  0  0  0  0  0
    3.7320   -3.3284    0.0000 C   0  0  0  0  0  0  0  0  0  0  0  0
    2.8660   -1.8284    0.0000 C   0  0  0  0  0  0  0  0  0  0  0  0
    2.8660   -2.8284    0.0000 C   0  0  0  0  0  0  0  0  0  0  0  0
    6.2926   -1.0123    0.0000 H   0  0  0  0  0  0  0  0  0  0  0  0
    7.3595    0.0147    0.0000 H   0  0  0  0  0  0  0  0  0  0  0  0
    6.7124    1.3467    0.0000 H   0  0  0  0  0  0  0  0  0  0  0  0
    5.2456    1.1429    0.0000 H   0  0  0  0  0  0  0  0  0  0  0  0
    5.1695    2.4857    0.0000 H   0  0  0  0  0  0  0  0  0  0  0  0
    5.0025    1.7063    0.0000 H   0  0  0  0  0  0  0  0  0  0  0  0
    8.1814   -0.6038    0.0000 H   0  0  0  0  0  0  0  0  0  0  0  0
    6.7479   -2.3284    0.0000 H   0  0  0  0  0  0  0  0  0  0  0  0
    8.1843    1.0674    0.0000 H   0  0  0  0  0  0  0  0  0  0  0  0
    3.7320   -0.7084    0.0000 H   0  0  0  0  0  0  0  0  0  0  0  0
    6.0302    3.3284    0.0000 H   0  0  0  0  0  0  0  0  0  0  0  0
    3.7320   -3.9484    0.0000 H   0  0  0  0  0  0  0  0  0  0  0  0
  1 19  1  0  0  0  0
  2 20  1  0  0  0  0
  3  9  1  0  0  0  0
  3 12  1  0  0  0  0
 10  4  1  1  0  0  0
  4 27  1  0  0  0  0
 11  5  1  1  0  0  0
  5 29  1  0  0  0  0
  6 13  1  0  0  0  0
  6 31  1  0  0  0  0
  9  7  1  6  0  0  0
  7 14  1  0  0  0  0
  7 15  1  0  0  0  0
  8 15  2  0  0  0  0
  8 16  1  0  0  0  0
  9 10  1  0  0  0  0
  9 21  1  0  0  0  0
 10 11  1  0  0  0  0
 10 22  1  0  0  0  0
 11 12  1  0  0  0  0
 11 23  1  0  0  0  0
 12 13  1  6  0  0  0
 12 24  1  0  0  0  0
 13 25  1  0  0  0  0
 13 26  1  0  0  0  0
 14 16  1  0  0  0  0
 14 17  2  0  0  0  0
 15 28  1  0  0  0  0
 16 18  2  0  0  0  0
 17 19  1  0  0  0  0
 17 30  1  0  0  0  0
 18 20  1  0  0  0  0
 18 32  1  0  0  0  0
 19 20  2  0  0  0  0
M  END
> <PUBCHEM_COMPOUND_CID>
5894

> <PUBCHEM_COMPOUND_CANONICALIZED>
1

> <PUBCHEM_CACTVS_COMPLEXITY>
364

> <PUBCHEM_CACTVS_HBOND_ACCEPTOR>
5

> <PUBCHEM_CACTVS_HBOND_DONOR>
3

> <PUBCHEM_CACTVS_ROTATABLE_BOND>
2

> <PUBCHEM_CACTVS_SUBSKEYS>
AAADccBzOAAGAAAAAAAAAAAAAAAAAWJAAAAwAAAAAAAAAFgB8AAAHgIACAAACB7hliY10LcMFgCgASRjZACCgC0xF6AB2mA4dpiLeKLBmpGeYAhvgALbyCfwMAIAAABAAAIAACQAAIAABAAASAAAAAAAAA==

> <PUBCHEM_IUPAC_OPENEYE_NAME>
(2R,3R,4S,5R)-2-(5,6-dichlorobenzimidazol-1-yl)-5-(hydroxymethyl)tetrahydrofuran-3,4-diol

> <PUBCHEM_IUPAC_CAS_NAME>
(2R,3R,4S,5R)-2-(5,6-dichloro-1-benzimidazolyl)-5-(hydroxymethyl)oxolane-3,4-diol

> <PUBCHEM_IUPAC_NAME>
(2R,3R,4S,5R)-2-(5,6-dichlorobenzimidazol-1-yl)-5-(hydroxymethyl)oxolane-3,4-diol

> <PUBCHEM_IUPAC_SYSTEMATIC_NAME>
(2R,3R,4S,5R)-2-[5,6-bis(chloranyl)benzimidazol-1-yl]-5-(hydroxymethyl)oxolane-3,4-diol

> <PUBCHEM_IUPAC_TRADITIONAL_NAME>
(2R,3R,4S,5R)-2-(5,6-dichlorobenzimidazol-1-yl)-5-methylol-tetrahydrofuran-3,4-diol

> <PUBCHEM_IUPAC_INCHI>
InChI=1S/C12H12Cl2N2O4/c13-5-1-7-8(2-6(5)14)16(4-15-7)12-11(19)10(18)9(3-17)20-12/h1-2,4,9-12,17-19H,3H2/t9-,10-,11-,12-/m1/s1

> <PUBCHEM_IUPAC_INCHIKEY>
XHSQDZXAVJRBMX-DDHJBXDOSA-N

> <PUBCHEM_XLOGP3_AA>
1.1

> <PUBCHEM_EXACT_MASS>
318.017

> <PUBCHEM_MOLECULAR_FORMULA>
C12H12Cl2N2O4

> <PUBCHEM_MOLECULAR_WEIGHT>
319.138

> <PUBCHEM_OPENEYE_CAN_SMILES>
C1=C2C(=CC(=C1Cl)Cl)N(C=N2)C3C(C(C(O3)CO)O)O

> <PUBCHEM_OPENEYE_ISO_SMILES>
C1=C2C(=CC(=C1Cl)Cl)N(C=N2)[C@H]3[C@@H]([C@@H]([C@H](O3)CO)O)O

> <PUBCHEM_CACTVS_TPSA>
87.7

> <PUBCHEM_MONOISOTOPIC_WEIGHT>
318.017

> <PUBCHEM_TOTAL_CHARGE>
0

> <PUBCHEM_HEAVY_ATOM_COUNT>
20

> <PUBCHEM_ATOM_DEF_STEREO_COUNT>
4

> <PUBCHEM_ATOM_UDEF_STEREO_COUNT>
0

> <PUBCHEM_BOND_DEF_STEREO_COUNT>
0

> <PUBCHEM_BOND_UDEF_STEREO_COUNT>
0

> <PUBCHEM_ISOTOPIC_ATOM_COUNT>
0

> <PUBCHEM_COMPONENT_COUNT>
1

> <PUBCHEM_CACTVS_TAUTO_COUNT>
1

> <PUBCHEM_COORDINATE_TYPE>
1
5
255

> <PUBCHEM_BONDANNOTATIONS>
12  13  6
14  16  8
14  17  8
16  18  8
17  19  8
18  20  8
19  20  8
10  4  5
11  5  5
7  14  8
7  15  8
9  7  6
8  15  8
8  16  8

$$$$
44299148
  -OEChem-11021605012D

 61 68  0     1  0  0  0  0  0999 V2000
    7.7141    2.8707    0.0000 O   0  0  0  0  0  0  0  0  0  0  0  0
    9.9489   -1.1211    0.0000 O   0  0  0  0  0  0  0  0  0  0  0  0
    2.0000   -0.0099    0.0000 O   0  0  0  0  0  0  0  0  0  0  0  0
    6.8258   -0.4438    0.0000 N   0  0  0  0  0  0  0  0  0  0  0  0
    5.8258    1.2882    0.0000 N   0  0  0  0  0  0  0  0  0  0  0  0
   11.6396    0.2480    0.0000 N   0  0  0  0  0  0  0  0  0  0  0  0
    2.6370   -1.7076    0.0000 N   0  0  0  0  0  0  0  0  0  0  0  0
    8.1919    0.9222    0.0000 C   0  0  2  0  0  0  0  0  0  0  0  0
    9.8966   -0.1225    0.0000 C   0  0  1  0  0  0  0  0  0  0  0  0
    8.4507    1.8881    0.0000 C   0  0  3  0  0  0  0  0  0  0  0  0
   10.6737    0.5069    0.0000 C   0  0  1  0  0  0  0  0  0  0  0  0
   10.3153    1.4404    0.0000 C   0  0  0  0  0  0  0  0  0  0  0  0
    5.8258   -0.4438    0.0000 C   0  0  0  0  0  0  0  0  0  0  0  0
    5.3258    0.4222    0.0000 C   0  0  0  0  0  0  0  0  0  0  0  0
    5.3190   -1.3538    0.0000 C   0  0  0  0  0  0  0  0  0  0  0  0
    4.2843    0.4382    0.0000 C   0  0  0  0  0  0  0  0  0  0  0  0
    6.9718   -1.4269    0.0000 C   0  0  0  0  0  0  0  0  0  0  0  0
    7.9330   -0.0437    0.0000 C   0  0  0  0  0  0  0  0  0  0  0  0
    5.0475    1.9061    0.0000 C   0  0  0  0  0  0  0  0  0  0  0  0
    6.1211   -1.9406    0.0000 C   0  0  0  0  0  0  0  0  0  0  0  0
    4.2774   -1.3619    0.0000 C   0  0  0  0  0  0  0  0  0  0  0  0
    3.7566   -0.4598    0.0000 C   0  0  0  0  0  0  0  0  0  0  0  0
    4.1772    1.4263    0.0000 C   0  0  0  0  0  0  0  0  0  0  0  0
    3.5825   -2.1296    0.0000 C   0  0  0  0  0  0  0  0  0  0  0  0
    7.8859   -1.9127    0.0000 C   0  0  0  0  0  0  0  0  0  0  0  0
    2.7443   -0.6777    0.0000 C   0  0  0  0  0  0  0  0  0  0  0  0
    6.1255   -2.9758    0.0000 C   0  0  0  0  0  0  0  0  0  0  0  0
    5.0838    2.9407    0.0000 C   0  0  0  0  0  0  0  0  0  0  0  0
    3.2829    1.9477    0.0000 C   0  0  0  0  0  0  0  0  0  0  0  0
   12.3467    0.9551    0.0000 C   0  0  0  0  0  0  0  0  0  0  0  0
   10.8399   -1.5751    0.0000 C   0  0  0  0  0  0  0  0  0  0  0  0
    7.9143   -2.9475    0.0000 C   0  0  0  0  0  0  0  0  0  0  0  0
    7.0281   -3.4826    0.0000 C   0  0  0  0  0  0  0  0  0  0  0  0
    4.2018    3.4826    0.0000 C   0  0  0  0  0  0  0  0  0  0  0  0
    3.2953    2.9828    0.0000 C   0  0  0  0  0  0  0  0  0  0  0  0
   10.4630   -0.3746    0.0000 H   0  0  0  0  0  0  0  0  0  0  0  0
    8.7913    2.4062    0.0000 H   0  0  0  0  0  0  0  0  0  0  0  0
   10.8026   -0.0996    0.0000 H   0  0  0  0  0  0  0  0  0  0  0  0
   10.9268    1.5428    0.0000 H   0  0  0  0  0  0  0  0  0  0  0  0
   10.3370    2.0601    0.0000 H   0  0  0  0  0  0  0  0  0  0  0  0
    7.3342    0.1167    0.0000 H   0  0  0  0  0  0  0  0  0  0  0  0
    7.7726   -0.6426    0.0000 H   0  0  0  0  0  0  0  0  0  0  0  0
    8.5319   -0.2042    0.0000 H   0  0  0  0  0  0  0  0  0  0  0  0
   11.8001   -0.3508    0.0000 H   0  0  0  0  0  0  0  0  0  0  0  0
    3.2718   -2.6661    0.0000 H   0  0  0  0  0  0  0  0  0  0  0  0
    4.0834   -2.4950    0.0000 H   0  0  0  0  0  0  0  0  0  0  0  0
    8.4129   -1.5861    0.0000 H   0  0  0  0  0  0  0  0  0  0  0  0
    5.5911   -3.2902    0.0000 H   0  0  0  0  0  0  0  0  0  0  0  0
    5.6302    3.2338    0.0000 H   0  0  0  0  0  0  0  0  0  0  0  0
    2.1000   -2.0176    0.0000 H   0  0  0  0  0  0  0  0  0  0  0  0
    2.7435    1.6421    0.0000 H   0  0  0  0  0  0  0  0  0  0  0  0
   12.7851    0.5167    0.0000 H   0  0  0  0  0  0  0  0  0  0  0  0
   12.7851    1.3936    0.0000 H   0  0  0  0  0  0  0  0  0  0  0  0
   11.9083    1.3936    0.0000 H   0  0  0  0  0  0  0  0  0  0  0  0
   10.5584   -2.1275    0.0000 H   0  0  0  0  0  0  0  0  0  0  0  0
   11.3923   -1.8566    0.0000 H   0  0  0  0  0  0  0  0  0  0  0  0
   11.1214   -1.0227    0.0000 H   0  0  0  0  0  0  0  0  0  0  0  0
    8.4584   -3.2448    0.0000 H   0  0  0  0  0  0  0  0  0  0  0  0
    7.0380   -4.1026    0.0000 H   0  0  0  0  0  0  0  0  0  0  0  0
    4.2164    4.1025    0.0000 H   0  0  0  0  0  0  0  0  0  0  0  0
    2.7634    3.3013    0.0000 H   0  0  0  0  0  0  0  0  0  0  0  0
  1  8  1  0  0  0  0
  1 10  1  0  0  0  0
  9  2  1  1  0  0  0
  2 31  1  0  0  0  0
  3 26  2  0  0  0  0
  4  8  1  0  0  0  0
  4 13  1  0  0  0  0
  4 17  1  0  0  0  0
  5 10  1  0  0  0  0
  5 14  1  0  0  0  0
  5 19  1  0  0  0  0
 11  6  1  1  0  0  0
  6 30  1  0  0  0  0
  6 44  1  0  0  0  0
  7 24  1  0  0  0  0
  7 26  1  0  0  0  0
  7 50  1  0  0  0  0
  8  9  1  0  0  0  0
  8 18  1  6  0  0  0
  9 11  1  0  0  0  0
  9 36  1  0  0  0  0
 10 12  1  0  0  0  0
 10 37  1  0  0  0  0
 11 12  1  0  0  0  0
 11 38  1  0  0  0  0
 12 39  1  0  0  0  0
 12 40  1  0  0  0  0
 13 14  2  0  0  0  0
 13 15  1  0  0  0  0
 14 16  1  0  0  0  0
 15 20  1  0  0  0  0
 15 21  2  0  0  0  0
 16 22  2  0  0  0  0
 16 23  1  0  0  0  0
 17 20  1  0  0  0  0
 17 25  2  0  0  0  0
 18 41  1  0  0  0  0
 18 42  1  0  0  0  0
 18 43  1  0  0  0  0
 19 23  1  0  0  0  0
 19 28  2  0  0  0  0
 20 27  2  0  0  0  0
 21 22  1  0  0  0  0
 21 24  1  0  0  0  0
 22 26  1  0  0  0  0
 23 29  2  0  0  0  0
 24 45  1  0  0  0  0
 24 46  1  0  0  0  0
 25 32  1  0  0  0  0
 25 47  1  0  0  0  0
 27 33  1  0  0  0  0
 27 48  1  0  0  0  0
 28 34  1  0  0  0  0
 28 49  1  0  0  0  0
 29 35  1  0  0  0  0
 29 51  1  0  0  0  0
 30 52  1  0  0  0  0
 30 53  1  0  0  0  0
 30 54  1  0  0  0  0
 31 55  1  0  0  0  0
 31 56  1  0  0  0  0
 31 57  1  0  0  0  0
 32 33  2  0  0  0  0
 32 58  1  0  0  0  0
 33 59  1  0  0  0  0
 34 35  2  0  0  0  0
 34 60  1  0  0  0  0
 35 61  1  0  0  0  0
M  END
> <PUBCHEM_COMPOUND_CID>
44299148

> <PUBCHEM_COMPOUND_CANONICALIZED>
1

> <PUBCHEM_CACTVS_COMPLEXITY>
901

> <PUBCHEM_CACTVS_HBOND_ACCEPTOR>
4

> <PUBCHEM_CACTVS_HBOND_DONOR>
2

> <PUBCHEM_CACTVS_ROTATABLE_BOND>
2

> <PUBCHEM_CACTVS_SUBSKEYS>
AAADceB7sAAAAAAAAAAAAAAAAAAAAWLFgAA0YMEABYAAAFix/gAAHgAQAAAADDzhngYywPPMFACoAyVyVACCgCQlEiAI2KE4dNgLYPLA1ZGfIQhmlgDayQf82cOeyAACQAASACCQAASAACQAQAAAAAAAAA==

> <PUBCHEM_IUPAC_INCHI>
InChI=1S/C28H26N4O3/c1-28-26(34-3)17(29-2)12-20(35-28)31-18-10-6-4-8-14(18)22-23-16(13-30-27(23)33)21-15-9-5-7-11-19(15)32(28)25(21)24(22)31/h4-11,17,20,26,29H,12-13H2,1-3H3,(H,30,33)/t17-,20?,26-,28+/m1/s1

> <PUBCHEM_IUPAC_INCHIKEY>
HKSZLNNOFSGOKW-ZGQXJOJZSA-N

> <PUBCHEM_XLOGP3_AA>
3.2

> <PUBCHEM_EXACT_MASS>
466.2

> <PUBCHEM_MOLECULAR_FORMULA>
C28H26N4O3

> <PUBCHEM_MOLECULAR_WEIGHT>
466.541

> <PUBCHEM_OPENEYE_CAN_SMILES>
CC12C(C(CC(O1)N3C4=CC=CC=C4C5=C6C(=C7C8=CC=CC=C8N2C7=C53)CNC6=O)NC)OC

> <PUBCHEM_OPENEYE_ISO_SMILES>
C[C@@]12[C@@H]([C@@H](CC(O1)N3C4=CC=CC=C4C5=C6C(=C7C8=CC=CC=C8N2C7=C53)CNC6=O)NC)OC

> <PUBCHEM_CACTVS_TPSA>
69.4

> <PUBCHEM_MONOISOTOPIC_WEIGHT>
466.2

> <PUBCHEM_TOTAL_CHARGE>
0

> <PUBCHEM_HEAVY_ATOM_COUNT>
35

> <PUBCHEM_ATOM_DEF_STEREO_COUNT>
3

> <PUBCHEM_ATOM_UDEF_STEREO_COUNT>
1

> <PUBCHEM_BOND_DEF_STEREO_COUNT>
0

> <PUBCHEM_BOND_UDEF_STEREO_COUNT>
0

> <PUBCHEM_ISOTOPIC_ATOM_COUNT>
0

> <PUBCHEM_COMPONENT_COUNT>
1

> <PUBCHEM_CACTVS_TAUTO_COUNT>
2

> <PUBCHEM_COORDINATE_TYPE>
1
5
255

> <PUBCHEM_BONDANNOTATIONS>
10  12  3
13  14  8
13  15  8
14  16  8
15  20  8
15  21  8
16  22  8
16  23  8
17  20  8
17  25  8
19  23  8
19  28  8
9  2  5
20  27  8
21  22  8
23  29  8
25  32  8
27  33  8
28  34  8
29  35  8
32  33  8
34  35  8
4  13  8
4  17  8
5  14  8
5  19  8
11  6  5
8  18  6

$$$$
4217
  -OEChem-11021605012D

 38 40  0     1  0  0  0  0  0999 V2000
    4.8719    3.8919    0.0000 Cl  0  0  0  0  0  0  0  0  0  0  0  0
    3.1235   -0.1427    0.0000 S   0  0  0  0  0  0  0  0  0  0  0  0
    2.1235   -0.1427    0.0000 O   0  0  0  0  0  0  0  0  0  0  0  0
    4.1235   -0.1427    0.0000 O   0  0  0  0  0  0  0  0  0  0  0  0
    3.1235   -1.1427    0.0000 N   0  0  3  0  0  0  0  0  0  0  0  0
    2.6235   -3.3333    0.0000 N   0  0  0  0  0  0  0  0  0  0  0  0
    4.0245   -1.5766    0.0000 C   0  0  0  0  0  0  0  0  0  0  0  0
    2.2225   -1.5766    0.0000 C   0  0  0  0  0  0  0  0  0  0  0  0
    4.2470   -2.5515    0.0000 C   0  0  0  0  0  0  0  0  0  0  0  0
    2.0000   -2.5515    0.0000 C   0  0  0  0  0  0  0  0  0  0  0  0
    3.6235   -3.3333    0.0000 C   0  0  0  0  0  0  0  0  0  0  0  0
    3.1235    0.8573    0.0000 C   0  0  0  0  0  0  0  0  0  0  0  0
    3.9895    1.3573    0.0000 C   0  0  0  0  0  0  0  0  0  0  0  0
    2.2575    1.3573    0.0000 C   0  0  0  0  0  0  0  0  0  0  0  0
    3.9895    2.3573    0.0000 C   0  0  0  0  0  0  0  0  0  0  0  0
    4.8835    0.8227    0.0000 C   0  0  0  0  0  0  0  0  0  0  0  0
    2.2575    2.3573    0.0000 C   0  0  0  0  0  0  0  0  0  0  0  0
    3.1235    2.8573    0.0000 C   0  0  0  0  0  0  0  0  0  0  0  0
    4.8835    2.8920    0.0000 C   0  0  0  0  0  0  0  0  0  0  0  0
    5.7895    1.3365    0.0000 C   0  0  0  0  0  0  0  0  0  0  0  0
    5.7895    2.3781    0.0000 C   0  0  0  0  0  0  0  0  0  0  0  0
    4.6445   -1.5766    0.0000 H   0  0  0  0  0  0  0  0  0  0  0  0
    4.1624   -0.9721    0.0000 H   0  0  0  0  0  0  0  0  0  0  0  0
    2.0846   -0.9721    0.0000 H   0  0  0  0  0  0  0  0  0  0  0  0
    1.6025   -1.5766    0.0000 H   0  0  0  0  0  0  0  0  0  0  0  0
    4.6335   -3.0362    0.0000 H   0  0  0  0  0  0  0  0  0  0  0  0
    4.8056   -2.2825    0.0000 H   0  0  0  0  0  0  0  0  0  0  0  0
    1.4414   -2.2825    0.0000 H   0  0  0  0  0  0  0  0  0  0  0  0
    1.6134   -3.0362    0.0000 H   0  0  0  0  0  0  0  0  0  0  0  0
    3.4855   -3.9378    0.0000 H   0  0  0  0  0  0  0  0  0  0  0  0
    4.1821   -3.6023    0.0000 H   0  0  0  0  0  0  0  0  0  0  0  0
    2.3545   -3.8919    0.0000 H   0  0  0  0  0  0  0  0  0  0  0  0
    1.7205    1.0473    0.0000 H   0  0  0  0  0  0  0  0  0  0  0  0
    4.8763    0.2027    0.0000 H   0  0  0  0  0  0  0  0  0  0  0  0
    1.7205    2.6673    0.0000 H   0  0  0  0  0  0  0  0  0  0  0  0
    3.1235    3.4773    0.0000 H   0  0  0  0  0  0  0  0  0  0  0  0
    6.3253    1.0244    0.0000 H   0  0  0  0  0  0  0  0  0  0  0  0
    6.3253    2.6902    0.0000 H   0  0  0  0  0  0  0  0  0  0  0  0
  1 19  1  0  0  0  0
  2  3  2  0  0  0  0
  2  4  2  0  0  0  0
  2  5  1  0  0  0  0
  2 12  1  0  0  0  0
  5  7  1  0  0  0  0
  5  8  1  0  0  0  0
  6 10  1  0  0  0  0
  6 11  1  0  0  0  0
  6 32  1  0  0  0  0
  7  9  1  0  0  0  0
  7 22  1  0  0  0  0
  7 23  1  0  0  0  0
  8 10  1  0  0  0  0
  8 24  1  0  0  0  0
  8 25  1  0  0  0  0
  9 11  1  0  0  0  0
  9 26  1  0  0  0  0
  9 27  1  0  0  0  0
 10 28  1  0  0  0  0
 10 29  1  0  0  0  0
 11 30  1  0  0  0  0
 11 31  1  0  0  0  0
 12 13  1  0  0  0  0
 12 14  2  0  0  0  0
 13 15  2  0  0  0  0
 13 16  1  0  0  0  0
 14 17  1  0  0  0  0
 14 33  1  0  0  0  0
 15 18  1  0  0  0  0
 15 19  1  0  0  0  0
 16 20  2  0  0  0  0
 16 34  1  0  0  0  0
 17 18  2  0  0  0  0
 17 35  1  0  0  0  0
 18 36  1  0  0  0  0
 19 21  2  0  0  0  0
 20 21  1  0  0  0  0
 20 37  1  0  0  0  0
 21 38  1  0  0  0  0
M  END
> <PUBCHEM_COMPOUND_CID>
4217

> <PUBCHEM_COMPOUND_CANONICALIZED>
1

> <PUBCHEM_CACTVS_COMPLEXITY>
451

> <PUBCHEM_CACTVS_HBOND_ACCEPTOR>
4

> <PUBCHEM_CACTVS_HBOND_DONOR>
1

> <PUBCHEM_CACTVS_ROTATABLE_BOND>
2

> <PUBCHEM_CACTVS_SUBSKEYS>
AAADceBzMABEAAAAAAAAAAAAAAAAAAAAAAAwYAAABYAAAADBUAAAHAYQQAAADALBWCQwAcLAAAKAAiBCAHBCABAgBQAIiJgIAogIYCKBUxCUIAAgkACIiAcAgIAOgAAAoAAVAAAAAAFAACoAAAAAAAAAAA==

> <PUBCHEM_IUPAC_OPENEYE_NAME>
1-[(5-chloro-1-naphthyl)sulfonyl]-1,4-diazepane

> <PUBCHEM_IUPAC_CAS_NAME>
1-[(5-chloro-1-naphthalenyl)sulfonyl]-1,4-diazepane

> <PUBCHEM_IUPAC_NAME>
1-(5-chloronaphthalen-1-yl)sulfonyl-1,4-diazepane

> <PUBCHEM_IUPAC_SYSTEMATIC_NAME>
1-(5-chloranylnaphthalen-1-yl)sulfonyl-1,4-diazepane

> <PUBCHEM_IUPAC_TRADITIONAL_NAME>
1-[(5-chloro-1-naphthyl)sulfonyl]-1,4-diazepane

> <PUBCHEM_IUPAC_INCHI>
InChI=1S/C15H17ClN2O2S/c16-14-6-1-5-13-12(14)4-2-7-15(13)21(19,20)18-10-3-8-17-9-11-18/h1-2,4-7,17H,3,8-11H2

> <PUBCHEM_IUPAC_INCHIKEY>
OZSMSRIUUDGTEP-UHFFFAOYSA-N

> <PUBCHEM_XLOGP3_AA>
2.6

> <PUBCHEM_EXACT_MASS>
324.07

> <PUBCHEM_MOLECULAR_FORMULA>
C15H17ClN2O2S

> <PUBCHEM_MOLECULAR_WEIGHT>
324.823

> <PUBCHEM_OPENEYE_CAN_SMILES>
C1CNCCN(C1)S(=O)(=O)C2=CC=CC3=C2C=CC=C3Cl

> <PUBCHEM_OPENEYE_ISO_SMILES>
C1CNCCN(C1)S(=O)(=O)C2=CC=CC3=C2C=CC=C3Cl

> <PUBCHEM_CACTVS_TPSA>
57.8

> <PUBCHEM_MONOISOTOPIC_WEIGHT>
324.07

> <PUBCHEM_TOTAL_CHARGE>
0

> <PUBCHEM_HEAVY_ATOM_COUNT>
21

> <PUBCHEM_ATOM_DEF_STEREO_COUNT>
0

> <PUBCHEM_ATOM_UDEF_STEREO_COUNT>
0

> <PUBCHEM_BOND_DEF_STEREO_COUNT>
0

> <PUBCHEM_BOND_UDEF_STEREO_COUNT>
0

> <PUBCHEM_ISOTOPIC_ATOM_COUNT>
0

> <PUBCHEM_COMPONENT_COUNT>
1

> <PUBCHEM_CACTVS_TAUTO_COUNT>
1

> <PUBCHEM_COORDINATE_TYPE>
1
5
255

> <PUBCHEM_BONDANNOTATIONS>
12  13  8
12  14  8
13  15  8
13  16  8
14  17  8
15  18  8
15  19  8
16  20  8
17  18  8
19  21  8
20  21  8

$$$$
3134
  -OEChem-11021605012D

 21 22  0     0  0  0  0  0  0999 V2000
    2.8660    1.2500    0.0000 N   0  0  0  0  0  0  0  0  0  0  0  0
    4.6783    0.0547    0.0000 N   0  0  0  0  0  0  0  0  0  0  0  0
    2.0000   -0.2500    0.0000 N   0  0  0  0  0  0  0  0  0  0  0  0
    4.6783   -1.5547    0.0000 N   0  0  0  0  0  0  0  0  0  0  0  0
    2.8660   -1.7500    0.0000 N   0  0  0  0  0  0  0  0  0  0  0  0
    3.7320   -0.2500    0.0000 C   0  0  0  0  0  0  0  0  0  0  0  0
    2.8660    0.2500    0.0000 C   0  0  0  0  0  0  0  0  0  0  0  0
    3.7320   -1.2500    0.0000 C   0  0  0  0  0  0  0  0  0  0  0  0
    2.0000    1.7500    0.0000 C   0  0  0  0  0  0  0  0  0  0  0  0
    3.7320    1.7500    0.0000 C   0  0  0  0  0  0  0  0  0  0  0  0
    5.2619   -0.7500    0.0000 C   0  0  0  0  0  0  0  0  0  0  0  0
    2.0000   -1.2500    0.0000 C   0  0  0  0  0  0  0  0  0  0  0  0
    4.8709    0.6441    0.0000 H   0  0  0  0  0  0  0  0  0  0  0  0
    4.0420    1.2131    0.0000 H   0  0  0  0  0  0  0  0  0  0  0  0
    4.2690    2.0600    0.0000 H   0  0  0  0  0  0  0  0  0  0  0  0
    3.4220    2.2869    0.0000 H   0  0  0  0  0  0  0  0  0  0  0  0
    2.3100    2.2869    0.0000 H   0  0  0  0  0  0  0  0  0  0  0  0
    1.4631    2.0600    0.0000 H   0  0  0  0  0  0  0  0  0  0  0  0
    1.6900    1.2131    0.0000 H   0  0  0  0  0  0  0  0  0  0  0  0
    5.8819   -0.7500    0.0000 H   0  0  0  0  0  0  0  0  0  0  0  0
    1.4631   -1.5600    0.0000 H   0  0  0  0  0  0  0  0  0  0  0  0
  1  7  1  0  0  0  0
  1  9  1  0  0  0  0
  1 10  1  0  0  0  0
  2  6  1  0  0  0  0
  2 11  1  0  0  0  0
  2 13  1  0  0  0  0
  3  7  2  0  0  0  0
  3 12  1  0  0  0  0
  4  8  1  0  0  0  0
  4 11  2  0  0  0  0
  5  8  1  0  0  0  0
  5 12  2  0  0  0  0
  6  7  1  0  0  0  0
  6  8  2  0  0  0  0
  9 17  1  0  0  0  0
  9 18  1  0  0  0  0
  9 19  1  0  0  0  0
 10 14  1  0  0  0  0
 10 15  1  0  0  0  0
 10 16  1  0  0  0  0
 11 20  1  0  0  0  0
 12 21  1  0  0  0  0
M  END
> <PUBCHEM_COMPOUND_CID>
3134

> <PUBCHEM_COMPOUND_CANONICALIZED>
1

> <PUBCHEM_CACTVS_COMPLEXITY>
160

> <PUBCHEM_CACTVS_HBOND_ACCEPTOR>
4

> <PUBCHEM_CACTVS_HBOND_DONOR>
1

> <PUBCHEM_CACTVS_ROTATABLE_BOND>
1

> <PUBCHEM_CACTVS_SUBSKEYS>
AAADccBjgAAAAAAAAAAAAAAAAAAAAWAAAAAsAAAAAAAAAFgB+AAAHAAQAAAACAgBFwQH8L/JkACgAQZhZACAgC2REKABUaAoVBCASABASEAUBAgIAAJAACAAAAAAAAAAAAAAAAAAAAAAAAAAAAAAAAAAAA==

> <PUBCHEM_IUPAC_OPENEYE_NAME>
N,N-dimethyl-7H-purin-6-amine

> <PUBCHEM_IUPAC_CAS_NAME>
N,N-dimethyl-7H-purin-6-amine

> <PUBCHEM_IUPAC_NAME>
N,N-dimethyl-7H-purin-6-amine

> <PUBCHEM_IUPAC_SYSTEMATIC_NAME>
N,N-dimethyl-7H-purin-6-amine

> <PUBCHEM_IUPAC_TRADITIONAL_NAME>
dimethyl(7H-purin-6-yl)amine

> <PUBCHEM_IUPAC_INCHI>
InChI=1S/C7H9N5/c1-12(2)7-5-6(9-3-8-5)10-4-11-7/h3-4H,1-2H3,(H,8,9,10,11)

> <PUBCHEM_IUPAC_INCHIKEY>
BVIAOQMSVZHOJM-UHFFFAOYSA-N

> <PUBCHEM_XLOGP3>
0.7

> <PUBCHEM_EXACT_MASS>
163.086

> <PUBCHEM_MOLECULAR_FORMULA>
C7H9N5

> <PUBCHEM_MOLECULAR_WEIGHT>
163.184

> <PUBCHEM_OPENEYE_CAN_SMILES>
CN(C)C1=NC=NC2=C1NC=N2

> <PUBCHEM_OPENEYE_ISO_SMILES>
CN(C)C1=NC=NC2=C1NC=N2

> <PUBCHEM_CACTVS_TPSA>
57.7

> <PUBCHEM_MONOISOTOPIC_WEIGHT>
163.086

> <PUBCHEM_TOTAL_CHARGE>
0

> <PUBCHEM_HEAVY_ATOM_COUNT>
12

> <PUBCHEM_ATOM_DEF_STEREO_COUNT>
0

> <PUBCHEM_ATOM_UDEF_STEREO_COUNT>
0

> <PUBCHEM_BOND_DEF_STEREO_COUNT>
0

> <PUBCHEM_BOND_UDEF_STEREO_COUNT>
0

> <PUBCHEM_ISOTOPIC_ATOM_COUNT>
0

> <PUBCHEM_COMPONENT_COUNT>
1

> <PUBCHEM_CACTVS_TAUTO_COUNT>
4

> <PUBCHEM_COORDINATE_TYPE>
1
5
255

> <PUBCHEM_BONDANNOTATIONS>
2  11  8
2  6  8
3  12  8
3  7  8
4  11  8
4  8  8
5  12  8
5  8  8
6  7  8
6  8  8

$$$$
10474839
  -OEChem-11021605012D

 36 39  0     0  0  0  0  0  0999 V2000
    3.4030   -1.0055    0.0000 S   0  0  0  0  0  0  0  0  0  0  0  0
    8.5309   -2.0055    0.0000 O   0  0  0  0  0  0  0  0  0  0  0  0
    5.1743    1.4205    0.0000 O   0  0  0  0  0  0  0  0  0  0  0  0
    2.5369   -0.5055    0.0000 O   0  0  0  0  0  0  0  0  0  0  0  0
    2.9030   -1.8716    0.0000 O   0  0  0  0  0  0  0  0  0  0  0  0
    3.9030   -0.1395    0.0000 O   0  0  0  0  0  0  0  0  0  0  0  0
    8.2041    0.0545    0.0000 N   0  0  0  0  0  0  0  0  0  0  0  0
    6.9473   -2.8103    0.0000 N   0  0  0  0  0  0  0  0  0  0  0  0
    5.6743    0.5545    0.0000 N   0  0  0  0  0  0  0  0  0  0  0  0
    7.2579   -0.2503    0.0000 C   0  0  0  0  0  0  0  0  0  0  0  0
    6.9473   -1.2008    0.0000 C   0  0  0  0  0  0  0  0  0  0  0  0
    6.0010   -1.5055    0.0000 C   0  0  0  0  0  0  0  0  0  0  0  0
    6.6743    0.5545    0.0000 C   0  0  0  0  0  0  0  0  0  0  0  0
    7.2579    1.3592    0.0000 C   0  0  0  0  0  0  0  0  0  0  0  0
    8.2084    1.0485    0.0000 C   0  0  0  0  0  0  0  0  0  0  0  0
    6.0010   -2.5055    0.0000 C   0  0  0  0  0  0  0  0  0  0  0  0
    5.1350   -1.0055    0.0000 C   0  0  0  0  0  0  0  0  0  0  0  0
    7.5309   -2.0055    0.0000 C   0  0  0  0  0  0  0  0  0  0  0  0
    4.2690   -1.5055    0.0000 C   0  0  0  0  0  0  0  0  0  0  0  0
    7.0517    2.3377    0.0000 C   0  0  0  0  0  0  0  0  0  0  0  0
    8.9527    1.7164    0.0000 C   0  0  0  0  0  0  0  0  0  0  0  0
    5.1350   -3.0055    0.0000 C   0  0  0  0  0  0  0  0  0  0  0  0
    4.2690   -2.5055    0.0000 C   0  0  0  0  0  0  0  0  0  0  0  0
    7.7960    3.0055    0.0000 C   0  0  0  0  0  0  0  0  0  0  0  0
    8.7465    2.6949    0.0000 C   0  0  0  0  0  0  0  0  0  0  0  0
    8.7045   -0.3117    0.0000 H   0  0  0  0  0  0  0  0  0  0  0  0
    5.1350   -0.3855    0.0000 H   0  0  0  0  0  0  0  0  0  0  0  0
    6.4624    2.5303    0.0000 H   0  0  0  0  0  0  0  0  0  0  0  0
    9.5421    1.5238    0.0000 H   0  0  0  0  0  0  0  0  0  0  0  0
    5.1350   -3.6255    0.0000 H   0  0  0  0  0  0  0  0  0  0  0  0
    3.7320   -2.8155    0.0000 H   0  0  0  0  0  0  0  0  0  0  0  0
    5.3643    0.0175    0.0000 H   0  0  0  0  0  0  0  0  0  0  0  0
    7.6682    3.6122    0.0000 H   0  0  0  0  0  0  0  0  0  0  0  0
    9.2080    3.1089    0.0000 H   0  0  0  0  0  0  0  0  0  0  0  0
    4.5543    1.4205    0.0000 H   0  0  0  0  0  0  0  0  0  0  0  0
    2.0000   -0.8155    0.0000 H   0  0  0  0  0  0  0  0  0  0  0  0
  1  4  1  0  0  0  0
  1  5  2  0  0  0  0
  1  6  2  0  0  0  0
  1 19  1  0  0  0  0
  2 18  2  0  0  0  0
  3  9  1  0  0  0  0
  3 35  1  0  0  0  0
  4 36  1  0  0  0  0
  7 10  1  0  0  0  0
  7 15  1  0  0  0  0
  7 26  1  0  0  0  0
  8 16  2  0  0  0  0
  8 18  1  0  0  0  0
  9 13  1  0  0  0  0
  9 32  1  0  0  0  0
 10 11  1  0  0  0  0
 10 13  2  0  0  0  0
 11 12  2  0  0  0  0
 11 18  1  0  0  0  0
 12 16  1  0  0  0  0
 12 17  1  0  0  0  0
 13 14  1  0  0  0  0
 14 15  1  0  0  0  0
 14 20  2  0  0  0  0
 15 21  2  0  0  0  0
 16 22  1  0  0  0  0
 17 19  2  0  0  0  0
 17 27  1  0  0  0  0
 19 23  1  0  0  0  0
 20 24  1  0  0  0  0
 20 28  1  0  0  0  0
 21 25  1  0  0  0  0
 21 29  1  0  0  0  0
 22 23  2  0  0  0  0
 22 30  1  0  0  0  0
 23 31  1  0  0  0  0
 24 25  2  0  0  0  0
 24 33  1  0  0  0  0
 25 34  1  0  0  0  0
M  END
> <PUBCHEM_COMPOUND_CID>
10474839

> <PUBCHEM_COMPOUND_CANONICALIZED>
1

> <PUBCHEM_CACTVS_COMPLEXITY>
850

> <PUBCHEM_CACTVS_HBOND_ACCEPTOR>
6

> <PUBCHEM_CACTVS_HBOND_DONOR>
4

> <PUBCHEM_CACTVS_ROTATABLE_BOND>
3

> <PUBCHEM_CACTVS_SUBSKEYS>
AAADccB7OABAAAAAAAAAAAAAAAAAAWIAAAAwQAAAAAAAAFgB8AAAHgQUCAAADAiB3gAwwPLZkIKoAyVyVHDCgCAhEiAomSEwdNgIYPrA1dGUJAhgkADIyQcciICOAAAAAAACAAAAAAAAAAQAAAAAAAAAAA==

> <PUBCHEM_IUPAC_OPENEYE_NAME>
3-[3-(hydroxyamino)-1H-indol-2-yl]-2-oxo-indole-5-sulfonic acid

> <PUBCHEM_IUPAC_CAS_NAME>
3-[3-(hydroxyamino)-1H-indol-2-yl]-2-oxo-5-indolesulfonic acid

> <PUBCHEM_IUPAC_NAME>
3-[3-(hydroxyamino)-1H-indol-2-yl]-2-oxoindole-5-sulfonic acid

> <PUBCHEM_IUPAC_SYSTEMATIC_NAME>
3-[3-(oxidanylamino)-1H-indol-2-yl]-2-oxidanylidene-indole-5-sulfonic acid

> <PUBCHEM_IUPAC_TRADITIONAL_NAME>
3-[3-(hydroxyamino)-1H-indol-2-yl]-2-keto-indole-5-sulfonic acid

> <PUBCHEM_IUPAC_INCHI>
InChI=1S/C16H11N3O5S/c20-16-13(10-7-8(25(22,23)24)5-6-12(10)18-16)15-14(19-21)9-3-1-2-4-11(9)17-15/h1-7,17,19,21H,(H,22,23,24)

> <PUBCHEM_IUPAC_INCHIKEY>
IZDNACYDKBNHHC-UHFFFAOYSA-N

> <PUBCHEM_XLOGP3_AA>
0.7

> <PUBCHEM_EXACT_MASS>
357.042

> <PUBCHEM_MOLECULAR_FORMULA>
C16H11N3O5S

> <PUBCHEM_MOLECULAR_WEIGHT>
357.34

> <PUBCHEM_OPENEYE_CAN_SMILES>
C1=CC=C2C(=C1)C(=C(N2)C3=C4C=C(C=CC4=NC3=O)S(=O)(=O)O)NO

> <PUBCHEM_OPENEYE_ISO_SMILES>
C1=CC=C2C(=C1)C(=C(N2)C3=C4C=C(C=CC4=NC3=O)S(=O)(=O)O)NO

> <PUBCHEM_CACTVS_TPSA>
140

> <PUBCHEM_MONOISOTOPIC_WEIGHT>
357.042

> <PUBCHEM_TOTAL_CHARGE>
0

> <PUBCHEM_HEAVY_ATOM_COUNT>
25

> <PUBCHEM_ATOM_DEF_STEREO_COUNT>
0

> <PUBCHEM_ATOM_UDEF_STEREO_COUNT>
0

> <PUBCHEM_BOND_DEF_STEREO_COUNT>
0

> <PUBCHEM_BOND_UDEF_STEREO_COUNT>
0

> <PUBCHEM_ISOTOPIC_ATOM_COUNT>
0

> <PUBCHEM_COMPONENT_COUNT>
1

> <PUBCHEM_CACTVS_TAUTO_COUNT>
78

> <PUBCHEM_COORDINATE_TYPE>
1
5
255

> <PUBCHEM_BONDANNOTATIONS>
10  13  8
12  16  8
12  17  8
13  14  8
14  15  8
14  20  8
15  21  8
16  22  8
17  19  8
19  23  8
20  24  8
21  25  8
22  23  8
24  25  8
7  10  8
7  15  8

$$$$
3062316
  -OEChem-11021605012D

 59 62  0     0  0  0  0  0  0999 V2000
    5.4791   -4.5609    0.0000 Cl  0  0  0  0  0  0  0  0  0  0  0  0
    3.6180   -2.0963    0.0000 S   0  0  0  0  0  0  0  0  0  0  0  0
    5.4071    6.9915    0.0000 O   0  0  0  0  0  0  0  0  0  0  0  0
    4.8913   -3.7518    0.0000 O   0  0  0  0  0  0  0  0  0  0  0  0
    4.5411    4.4915    0.0000 N   0  0  0  0  0  0  0  0  0  0  0  0
    4.5411    2.4915    0.0000 N   0  0  0  0  0  0  0  0  0  0  0  0
    5.4071    0.9915    0.0000 N   0  0  0  0  0  0  0  0  0  0  0  0
    4.5411   -0.5085    0.0000 N   0  0  0  0  0  0  0  0  0  0  0  0
    2.8090   -0.5085    0.0000 N   0  0  0  0  0  0  0  0  0  0  0  0
    2.0000   -2.0963    0.0000 N   0  0  0  0  0  0  0  0  0  0  0  0
    3.4901   -4.7699    0.0000 N   0  0  0  0  0  0  0  0  0  0  0  0
    3.6750    3.9915    0.0000 C   0  0  0  0  0  0  0  0  0  0  0  0
    5.4071    3.9915    0.0000 C   0  0  0  0  0  0  0  0  0  0  0  0
    3.6750    2.9915    0.0000 C   0  0  0  0  0  0  0  0  0  0  0  0
    5.4071    2.9915    0.0000 C   0  0  0  0  0  0  0  0  0  0  0  0
    4.5411    5.4915    0.0000 C   0  0  0  0  0  0  0  0  0  0  0  0
    4.5411    1.4915    0.0000 C   0  0  0  0  0  0  0  0  0  0  0  0
    5.4071    5.9915    0.0000 C   0  0  0  0  0  0  0  0  0  0  0  0
    3.6750    0.9915    0.0000 C   0  0  0  0  0  0  0  0  0  0  0  0
    3.6750   -0.0085    0.0000 C   0  0  0  0  0  0  0  0  0  0  0  0
    5.4071   -0.0085    0.0000 C   0  0  0  0  0  0  0  0  0  0  0  0
    6.2731   -0.5085    0.0000 C   0  0  0  0  0  0  0  0  0  0  0  0
    2.8090   -1.5085    0.0000 C   0  0  0  0  0  0  0  0  0  0  0  0
    3.3090   -3.0473    0.0000 C   0  0  0  0  0  0  0  0  0  0  0  0
    4.0778   -5.5789    0.0000 C   0  0  0  0  0  0  0  0  0  0  0  0
    2.3090   -3.0473    0.0000 C   0  0  0  0  0  0  0  0  0  0  0  0
    3.6711   -6.4925    0.0000 C   0  0  0  0  0  0  0  0  0  0  0  0
    3.8968   -3.8564    0.0000 C   0  0  0  0  0  0  0  0  0  0  0  0
    5.0724   -5.4744    0.0000 C   0  0  0  0  0  0  0  0  0  0  0  0
    4.2589   -7.3015    0.0000 C   0  0  0  0  0  0  0  0  0  0  0  0
    2.6766   -6.5970    0.0000 C   0  0  0  0  0  0  0  0  0  0  0  0
    5.6602   -6.2834    0.0000 C   0  0  0  0  0  0  0  0  0  0  0  0
    5.2534   -7.1970    0.0000 C   0  0  0  0  0  0  0  0  0  0  0  0
    6.0177    3.8838    0.0000 H   0  0  0  0  0  0  0  0  0  0  0  0
    5.6192    4.5741    0.0000 H   0  0  0  0  0  0  0  0  0  0  0  0
    3.4630    4.5741    0.0000 H   0  0  0  0  0  0  0  0  0  0  0  0
    3.0645    3.8838    0.0000 H   0  0  0  0  0  0  0  0  0  0  0  0
    5.6192    2.4089    0.0000 H   0  0  0  0  0  0  0  0  0  0  0  0
    6.0177    3.0992    0.0000 H   0  0  0  0  0  0  0  0  0  0  0  0
    3.0645    3.0992    0.0000 H   0  0  0  0  0  0  0  0  0  0  0  0
    3.4630    2.4089    0.0000 H   0  0  0  0  0  0  0  0  0  0  0  0
    4.3290    6.0741    0.0000 H   0  0  0  0  0  0  0  0  0  0  0  0
    3.9305    5.3838    0.0000 H   0  0  0  0  0  0  0  0  0  0  0  0
    5.6192    5.4089    0.0000 H   0  0  0  0  0  0  0  0  0  0  0  0
    6.0177    6.0992    0.0000 H   0  0  0  0  0  0  0  0  0  0  0  0
    3.1381    1.3015    0.0000 H   0  0  0  0  0  0  0  0  0  0  0  0
    5.9440    7.3015    0.0000 H   0  0  0  0  0  0  0  0  0  0  0  0
    2.2721   -0.1985    0.0000 H   0  0  0  0  0  0  0  0  0  0  0  0
    5.9631   -1.0454    0.0000 H   0  0  0  0  0  0  0  0  0  0  0  0
    6.8100   -0.8185    0.0000 H   0  0  0  0  0  0  0  0  0  0  0  0
    6.5831    0.0284    0.0000 H   0  0  0  0  0  0  0  0  0  0  0  0
    1.9446   -3.5489    0.0000 H   0  0  0  0  0  0  0  0  0  0  0  0
    2.8735   -4.8347    0.0000 H   0  0  0  0  0  0  0  0  0  0  0  0
    4.0067   -7.8679    0.0000 H   0  0  0  0  0  0  0  0  0  0  0  0
    2.6118   -5.9804    0.0000 H   0  0  0  0  0  0  0  0  0  0  0  0
    2.0600   -6.6618    0.0000 H   0  0  0  0  0  0  0  0  0  0  0  0
    2.7414   -7.2136    0.0000 H   0  0  0  0  0  0  0  0  0  0  0  0
    6.2768   -6.2186    0.0000 H   0  0  0  0  0  0  0  0  0  0  0  0
    5.6178   -7.6986    0.0000 H   0  0  0  0  0  0  0  0  0  0  0  0
  1 29  1  0  0  0  0
  2 23  1  0  0  0  0
  2 24  1  0  0  0  0
  3 18  1  0  0  0  0
  3 47  1  0  0  0  0
  4 28  2  0  0  0  0
  5 12  1  0  0  0  0
  5 13  1  0  0  0  0
  5 16  1  0  0  0  0
  6 14  1  0  0  0  0
  6 15  1  0  0  0  0
  6 17  1  0  0  0  0
  7 17  1  0  0  0  0
  7 21  2  0  0  0  0
  8 20  2  0  0  0  0
  8 21  1  0  0  0  0
  9 20  1  0  0  0  0
  9 23  1  0  0  0  0
  9 48  1  0  0  0  0
 10 23  2  0  0  0  0
 10 26  1  0  0  0  0
 11 25  1  0  0  0  0
 11 28  1  0  0  0  0
 11 53  1  0  0  0  0
 12 14  1  0  0  0  0
 12 36  1  0  0  0  0
 12 37  1  0  0  0  0
 13 15  1  0  0  0  0
 13 34  1  0  0  0  0
 13 35  1  0  0  0  0
 14 40  1  0  0  0  0
 14 41  1  0  0  0  0
 15 38  1  0  0  0  0
 15 39  1  0  0  0  0
 16 18  1  0  0  0  0
 16 42  1  0  0  0  0
 16 43  1  0  0  0  0
 17 19  2  0  0  0  0
 18 44  1  0  0  0  0
 18 45  1  0  0  0  0
 19 20  1  0  0  0  0
 19 46  1  0  0  0  0
 21 22  1  0  0  0  0
 22 49  1  0  0  0  0
 22 50  1  0  0  0  0
 22 51  1  0  0  0  0
 24 26  2  0  0  0  0
 24 28  1  0  0  0  0
 25 27  2  0  0  0  0
 25 29  1  0  0  0  0
 26 52  1  0  0  0  0
 27 30  1  0  0  0  0
 27 31  1  0  0  0  0
 29 32  2  0  0  0  0
 30 33  2  0  0  0  0
 30 54  1  0  0  0  0
 31 55  1  0  0  0  0
 31 56  1  0  0  0  0
 31 57  1  0  0  0  0
 32 33  1  0  0  0  0
 32 58  1  0  0  0  0
 33 59  1  0  0  0  0
M  END
> <PUBCHEM_COMPOUND_CID>
3062316

> <PUBCHEM_COMPOUND_CANONICALIZED>
1

> <PUBCHEM_CACTVS_COMPLEXITY>
642

> <PUBCHEM_CACTVS_HBOND_ACCEPTOR>
9

> <PUBCHEM_CACTVS_HBOND_DONOR>
3

> <PUBCHEM_CACTVS_ROTATABLE_BOND>
7

> <PUBCHEM_CACTVS_SUBSKEYS>
AAADceB7sABEAAAAAAAAAAAAAAAAAWAAAAA8WIAAAAAAAAAB8AAAHgYQCAAADArh2yY/8ZfIEgisAjd3dACC8Kl1D7lJ2C04ZtiKeCrB29HUJIholALYyOcQgAAOAAAAIAACABAAAABAAAQAIAAAAAAAAA==

> <PUBCHEM_IUPAC_OPENEYE_NAME>
N-(2-chloro-6-methyl-phenyl)-2-[[6-[4-(2-hydroxyethyl)piperazin-1-yl]-2-methyl-pyrimidin-4-yl]amino]thiazole-5-carboxamide

> <PUBCHEM_IUPAC_CAS_NAME>
N-(2-chloro-6-methylphenyl)-2-[[6-[4-(2-hydroxyethyl)-1-piperazinyl]-2-methyl-4-pyrimidinyl]amino]-5-thiazolecarboxamide

> <PUBCHEM_IUPAC_NAME>
N-(2-chloro-6-methylphenyl)-2-[[6-[4-(2-hydroxyethyl)piperazin-1-yl]-2-methylpyrimidin-4-yl]amino]-1,3-thiazole-5-carboxamide

> <PUBCHEM_IUPAC_SYSTEMATIC_NAME>
N-(2-chloranyl-6-methyl-phenyl)-2-[[6-[4-(2-hydroxyethyl)piperazin-1-yl]-2-methyl-pyrimidin-4-yl]amino]-1,3-thiazole-5-carboxamide

> <PUBCHEM_IUPAC_TRADITIONAL_NAME>
N-(2-chloro-6-methyl-phenyl)-2-[[6-[4-(2-hydroxyethyl)piperazino]-2-methyl-pyrimidin-4-yl]amino]thiazole-5-carboxamide

> <PUBCHEM_IUPAC_INCHI>
InChI=1S/C22H26ClN7O2S/c1-14-4-3-5-16(23)20(14)28-21(32)17-13-24-22(33-17)27-18-12-19(26-15(2)25-18)30-8-6-29(7-9-30)10-11-31/h3-5,12-13,31H,6-11H2,1-2H3,(H,28,32)(H,24,25,26,27)

> <PUBCHEM_IUPAC_INCHIKEY>
ZBNZXTGUTAYRHI-UHFFFAOYSA-N

> <PUBCHEM_XLOGP3_AA>
3.6

> <PUBCHEM_EXACT_MASS>
487.156

> <PUBCHEM_MOLECULAR_FORMULA>
C22H26ClN7O2S

> <PUBCHEM_MOLECULAR_WEIGHT>
488.007

> <PUBCHEM_OPENEYE_CAN_SMILES>
CC1=C(C(=CC=C1)Cl)NC(=O)C2=CN=C(S2)NC3=NC(=NC(=C3)N4CCN(CC4)CCO)C

> <PUBCHEM_OPENEYE_ISO_SMILES>
CC1=C(C(=CC=C1)Cl)NC(=O)C2=CN=C(S2)NC3=NC(=NC(=C3)N4CCN(CC4)CCO)C

> <PUBCHEM_CACTVS_TPSA>
135

> <PUBCHEM_MONOISOTOPIC_WEIGHT>
487.156

> <PUBCHEM_TOTAL_CHARGE>
0

> <PUBCHEM_HEAVY_ATOM_COUNT>
33

> <PUBCHEM_ATOM_DEF_STEREO_COUNT>
0

> <PUBCHEM_ATOM_UDEF_STEREO_COUNT>
0

> <PUBCHEM_BOND_DEF_STEREO_COUNT>
0

> <PUBCHEM_BOND_UDEF_STEREO_COUNT>
0

> <PUBCHEM_ISOTOPIC_ATOM_COUNT>
0

> <PUBCHEM_COMPONENT_COUNT>
1

> <PUBCHEM_CACTVS_TAUTO_COUNT>
139

> <PUBCHEM_COORDINATE_TYPE>
1
5
255

> <PUBCHEM_BONDANNOTATIONS>
10  23  8
10  26  8
17  19  8
19  20  8
2  23  8
2  24  8
24  26  8
25  27  8
25  29  8
27  30  8
29  32  8
30  33  8
32  33  8
7  17  8
7  21  8
8  20  8
8  21  8

$$$$
6419746
  -OEChem-11021605012D

 29 30  0     0  0  0  0  0  0999 V2000
    3.7320   -2.9268    0.0000 O   0  0  0  0  0  0  0  0  0  0  0  0
    5.7195    0.1883    0.0000 O   0  0  0  0  0  0  0  0  0  0  0  0
    3.9595    3.2368    0.0000 O   0  0  0  0  0  0  0  0  0  0  0  0
    3.7320    0.0732    0.0000 C   0  0  0  0  0  0  0  0  0  0  0  0
    2.8660   -1.4268    0.0000 C   0  0  0  0  0  0  0  0  0  0  0  0
    4.5981   -1.4268    0.0000 C   0  0  0  0  0  0  0  0  0  0  0  0
    3.7320   -1.9268    0.0000 C   0  0  0  0  0  0  0  0  0  0  0  0
    2.8660   -0.4268    0.0000 C   0  0  0  0  0  0  0  0  0  0  0  0
    4.5981   -0.4268    0.0000 C   0  0  0  0  0  0  0  0  0  0  0  0
    3.7320    1.0732    0.0000 C   0  0  0  0  0  0  0  0  0  0  0  0
    4.5981    1.5732    0.0000 C   0  0  0  0  0  0  0  0  0  0  0  0
    2.0000   -1.9268    0.0000 C   0  0  0  0  0  0  0  0  0  0  0  0
    5.4641   -1.9268    0.0000 C   0  0  0  0  0  0  0  0  0  0  0  0
    5.5116    1.1664    0.0000 C   0  0  0  0  0  0  0  0  0  0  0  0
    4.7026    2.5677    0.0000 C   0  0  0  0  0  0  0  0  0  0  0  0
    6.1808    1.9096    0.0000 C   0  0  0  0  0  0  0  0  0  0  0  0
    5.6808    2.7756    0.0000 C   0  0  0  0  0  0  0  0  0  0  0  0
    2.3291   -0.1168    0.0000 H   0  0  0  0  0  0  0  0  0  0  0  0
    5.1350   -0.1168    0.0000 H   0  0  0  0  0  0  0  0  0  0  0  0
    3.1951    1.3832    0.0000 H   0  0  0  0  0  0  0  0  0  0  0  0
    1.6900   -1.3899    0.0000 H   0  0  0  0  0  0  0  0  0  0  0  0
    1.4631   -2.2368    0.0000 H   0  0  0  0  0  0  0  0  0  0  0  0
    2.3100   -2.4638    0.0000 H   0  0  0  0  0  0  0  0  0  0  0  0
    5.1541   -2.4638    0.0000 H   0  0  0  0  0  0  0  0  0  0  0  0
    6.0010   -2.2368    0.0000 H   0  0  0  0  0  0  0  0  0  0  0  0
    5.7741   -1.3899    0.0000 H   0  0  0  0  0  0  0  0  0  0  0  0
    6.7974    1.8448    0.0000 H   0  0  0  0  0  0  0  0  0  0  0  0
    5.9329    3.3420    0.0000 H   0  0  0  0  0  0  0  0  0  0  0  0
    3.1951   -3.2368    0.0000 H   0  0  0  0  0  0  0  0  0  0  0  0
  1  7  1  0  0  0  0
  1 29  1  0  0  0  0
  2 14  2  0  0  0  0
  3 15  2  0  0  0  0
  4  8  2  0  0  0  0
  4  9  1  0  0  0  0
  4 10  1  0  0  0  0
  5  7  2  0  0  0  0
  5  8  1  0  0  0  0
  5 12  1  0  0  0  0
  6  7  1  0  0  0  0
  6  9  2  0  0  0  0
  6 13  1  0  0  0  0
  8 18  1  0  0  0  0
  9 19  1  0  0  0  0
 10 11  2  0  0  0  0
 10 20  1  0  0  0  0
 11 14  1  0  0  0  0
 11 15  1  0  0  0  0
 12 21  1  0  0  0  0
 12 22  1  0  0  0  0
 12 23  1  0  0  0  0
 13 24  1  0  0  0  0
 13 25  1  0  0  0  0
 13 26  1  0  0  0  0
 14 16  1  0  0  0  0
 15 17  1  0  0  0  0
 16 17  2  0  0  0  0
 16 27  1  0  0  0  0
 17 28  1  0  0  0  0
M  END
> <PUBCHEM_COMPOUND_CID>
6419746

> <PUBCHEM_COMPOUND_CANONICALIZED>
1

> <PUBCHEM_CACTVS_COMPLEXITY>
374

> <PUBCHEM_CACTVS_HBOND_ACCEPTOR>
3

> <PUBCHEM_CACTVS_HBOND_DONOR>
1

> <PUBCHEM_CACTVS_ROTATABLE_BOND>
1

> <PUBCHEM_CACTVS_SUBSKEYS>
AAADccBwMAAAAAAAAAAAAAAAAAAAAQAAAAAwAAAAAAAAAAABAAAAGgAACAAADASAmAAyBoAAAgCIAqBSAAACAAAgIAAIiAEECMgIJjKKERKAcAAkwBEImYeAwGAOIAACAAAIAABAAAQAABAAAAAAAAAAAA==

> <PUBCHEM_IUPAC_OPENEYE_NAME>
2-[(4-hydroxy-3,5-dimethyl-phenyl)methylene]cyclopent-4-ene-1,3-dione

> <PUBCHEM_IUPAC_CAS_NAME>
2-[(4-hydroxy-3,5-dimethylphenyl)methylidene]cyclopent-4-ene-1,3-dione

> <PUBCHEM_IUPAC_NAME>
2-[(4-hydroxy-3,5-dimethylphenyl)methylidene]cyclopent-4-ene-1,3-dione

> <PUBCHEM_IUPAC_SYSTEMATIC_NAME>
2-[(3,5-dimethyl-4-oxidanyl-phenyl)methylidene]cyclopent-4-ene-1,3-dione

> <PUBCHEM_IUPAC_TRADITIONAL_NAME>
2-(4-hydroxy-3,5-dimethyl-benzylidene)cyclopent-4-ene-1,3-quinone

> <PUBCHEM_IUPAC_INCHI>
InChI=1S/C14H12O3/c1-8-5-10(6-9(2)14(8)17)7-11-12(15)3-4-13(11)16/h3-7,17H,1-2H3

> <PUBCHEM_IUPAC_INCHIKEY>
YHWRISYBKMXSGJ-UHFFFAOYSA-N

> <PUBCHEM_XLOGP3_AA>
2.5

> <PUBCHEM_EXACT_MASS>
228.079

> <PUBCHEM_MOLECULAR_FORMULA>
C14H12O3

> <PUBCHEM_MOLECULAR_WEIGHT>
228.247

> <PUBCHEM_OPENEYE_CAN_SMILES>
CC1=CC(=CC(=C1O)C)C=C2C(=O)C=CC2=O

> <PUBCHEM_OPENEYE_ISO_SMILES>
CC1=CC(=CC(=C1O)C)C=C2C(=O)C=CC2=O

> <PUBCHEM_CACTVS_TPSA>
54.4

> <PUBCHEM_MONOISOTOPIC_WEIGHT>
228.079

> <PUBCHEM_TOTAL_CHARGE>
0

> <PUBCHEM_HEAVY_ATOM_COUNT>
17

> <PUBCHEM_ATOM_DEF_STEREO_COUNT>
0

> <PUBCHEM_ATOM_UDEF_STEREO_COUNT>
0

> <PUBCHEM_BOND_DEF_STEREO_COUNT>
0

> <PUBCHEM_BOND_UDEF_STEREO_COUNT>
0

> <PUBCHEM_ISOTOPIC_ATOM_COUNT>
0

> <PUBCHEM_COMPONENT_COUNT>
1

> <PUBCHEM_CACTVS_TAUTO_COUNT>
5

> <PUBCHEM_COORDINATE_TYPE>
1
5
255

> <PUBCHEM_BONDANNOTATIONS>
4  8  8
4  9  8
5  7  8
5  8  8
6  7  8
6  9  8

$$$$
490561
  -OEChem-11021605012D

 56 63  0     1  0  0  0  0  0999 V2000
    7.7141    2.8707    0.0000 O   0  0  0  0  0  0  0  0  0  0  0  0
    9.9193   -0.8312    0.0000 O   0  0  0  0  0  0  0  0  0  0  0  0
   11.7464    0.3444    0.0000 O   0  0  0  0  0  0  0  0  0  0  0  0
   11.0419   -1.2379    0.0000 O   0  0  0  0  0  0  0  0  0  0  0  0
    2.0000   -0.0099    0.0000 O   0  0  0  0  0  0  0  0  0  0  0  0
    6.8258   -0.4438    0.0000 N   0  0  0  0  0  0  0  0  0  0  0  0
    5.8258    1.2882    0.0000 N   0  0  0  0  0  0  0  0  0  0  0  0
    2.6370   -1.7076    0.0000 N   0  0  0  0  0  0  0  0  0  0  0  0
    8.1919    0.9222    0.0000 C   0  0  1  0  0  0  0  0  0  0  0  0
   10.0238    0.1634    0.0000 C   0  0  2  0  0  0  0  0  0  0  0  0
    8.4507    1.8881    0.0000 C   0  0  2  0  0  0  0  0  0  0  0  0
   10.2826    1.1293    0.0000 C   0  0  0  0  0  0  0  0  0  0  0  0
    5.8258   -0.4438    0.0000 C   0  0  0  0  0  0  0  0  0  0  0  0
    5.3258    0.4222    0.0000 C   0  0  0  0  0  0  0  0  0  0  0  0
    5.3190   -1.3538    0.0000 C   0  0  0  0  0  0  0  0  0  0  0  0
    4.2843    0.4382    0.0000 C   0  0  0  0  0  0  0  0  0  0  0  0
    7.9330   -0.0437    0.0000 C   0  0  0  0  0  0  0  0  0  0  0  0
    6.9718   -1.4269    0.0000 C   0  0  0  0  0  0  0  0  0  0  0  0
    5.0475    1.9061    0.0000 C   0  0  0  0  0  0  0  0  0  0  0  0
    6.1211   -1.9406    0.0000 C   0  0  0  0  0  0  0  0  0  0  0  0
    4.2774   -1.3619    0.0000 C   0  0  0  0  0  0  0  0  0  0  0  0
    3.7566   -0.4598    0.0000 C   0  0  0  0  0  0  0  0  0  0  0  0
    4.1772    1.4263    0.0000 C   0  0  0  0  0  0  0  0  0  0  0  0
   10.9374   -0.2434    0.0000 C   0  0  0  0  0  0  0  0  0  0  0  0
    3.5825   -2.1296    0.0000 C   0  0  0  0  0  0  0  0  0  0  0  0
    7.8859   -1.9127    0.0000 C   0  0  0  0  0  0  0  0  0  0  0  0
    2.7443   -0.6777    0.0000 C   0  0  0  0  0  0  0  0  0  0  0  0
    5.0838    2.9407    0.0000 C   0  0  0  0  0  0  0  0  0  0  0  0
    6.1255   -2.9758    0.0000 C   0  0  0  0  0  0  0  0  0  0  0  0
    3.2829    1.9477    0.0000 C   0  0  0  0  0  0  0  0  0  0  0  0
    7.9143   -2.9475    0.0000 C   0  0  0  0  0  0  0  0  0  0  0  0
    7.0281   -3.4826    0.0000 C   0  0  0  0  0  0  0  0  0  0  0  0
    4.2018    3.4826    0.0000 C   0  0  0  0  0  0  0  0  0  0  0  0
    3.2953    2.9828    0.0000 C   0  0  0  0  0  0  0  0  0  0  0  0
   12.6599   -0.0623    0.0000 C   0  0  0  0  0  0  0  0  0  0  0  0
    8.6707    2.7091    0.0000 H   0  0  0  0  0  0  0  0  0  0  0  0
   10.8739    0.9428    0.0000 H   0  0  0  0  0  0  0  0  0  0  0  0
   10.4947    1.7119    0.0000 H   0  0  0  0  0  0  0  0  0  0  0  0
    7.3342    0.1167    0.0000 H   0  0  0  0  0  0  0  0  0  0  0  0
    7.7726   -0.6426    0.0000 H   0  0  0  0  0  0  0  0  0  0  0  0
    8.5319   -0.2042    0.0000 H   0  0  0  0  0  0  0  0  0  0  0  0
    9.3529   -1.0833    0.0000 H   0  0  0  0  0  0  0  0  0  0  0  0
    3.2718   -2.6661    0.0000 H   0  0  0  0  0  0  0  0  0  0  0  0
    4.0834   -2.4950    0.0000 H   0  0  0  0  0  0  0  0  0  0  0  0
    8.4129   -1.5861    0.0000 H   0  0  0  0  0  0  0  0  0  0  0  0
    5.6302    3.2338    0.0000 H   0  0  0  0  0  0  0  0  0  0  0  0
    5.5911   -3.2902    0.0000 H   0  0  0  0  0  0  0  0  0  0  0  0
    2.7435    1.6421    0.0000 H   0  0  0  0  0  0  0  0  0  0  0  0
    2.1000   -2.0176    0.0000 H   0  0  0  0  0  0  0  0  0  0  0  0
    8.4584   -3.2448    0.0000 H   0  0  0  0  0  0  0  0  0  0  0  0
    7.0380   -4.1026    0.0000 H   0  0  0  0  0  0  0  0  0  0  0  0
    4.2164    4.1025    0.0000 H   0  0  0  0  0  0  0  0  0  0  0  0
    2.7634    3.3013    0.0000 H   0  0  0  0  0  0  0  0  0  0  0  0
   12.4077   -0.6287    0.0000 H   0  0  0  0  0  0  0  0  0  0  0  0
   13.2263   -0.3145    0.0000 H   0  0  0  0  0  0  0  0  0  0  0  0
   12.9121    0.5041    0.0000 H   0  0  0  0  0  0  0  0  0  0  0  0
  1  9  1  0  0  0  0
  1 11  1  0  0  0  0
 10  2  1  6  0  0  0
  2 42  1  0  0  0  0
  3 24  1  0  0  0  0
  3 35  1  0  0  0  0
  4 24  2  0  0  0  0
  5 27  2  0  0  0  0
  6  9  1  0  0  0  0
  6 13  1  0  0  0  0
  6 18  1  0  0  0  0
  7 11  1  0  0  0  0
  7 14  1  0  0  0  0
  7 19  1  0  0  0  0
  8 25  1  0  0  0  0
  8 27  1  0  0  0  0
  8 49  1  0  0  0  0
  9 10  1  0  0  0  0
  9 17  1  1  0  0  0
 10 12  1  0  0  0  0
 10 24  1  0  0  0  0
 11 12  1  0  0  0  0
 11 36  1  6  0  0  0
 12 37  1  0  0  0  0
 12 38  1  0  0  0  0
 13 14  2  0  0  0  0
 13 15  1  0  0  0  0
 14 16  1  0  0  0  0
 15 20  1  0  0  0  0
 15 21  2  0  0  0  0
 16 22  2  0  0  0  0
 16 23  1  0  0  0  0
 17 39  1  0  0  0  0
 17 40  1  0  0  0  0
 17 41  1  0  0  0  0
 18 20  1  0  0  0  0
 18 26  2  0  0  0  0
 19 23  1  0  0  0  0
 19 28  2  0  0  0  0
 20 29  2  0  0  0  0
 21 22  1  0  0  0  0
 21 25  1  0  0  0  0
 22 27  1  0  0  0  0
 23 30  2  0  0  0  0
 25 43  1  0  0  0  0
 25 44  1  0  0  0  0
 26 31  1  0  0  0  0
 26 45  1  0  0  0  0
 28 33  1  0  0  0  0
 28 46  1  0  0  0  0
 29 32  1  0  0  0  0
 29 47  1  0  0  0  0
 30 34  1  0  0  0  0
 30 48  1  0  0  0  0
 31 32  2  0  0  0  0
 31 50  1  0  0  0  0
 32 51  1  0  0  0  0
 33 34  2  0  0  0  0
 33 52  1  0  0  0  0
 34 53  1  0  0  0  0
 35 54  1  0  0  0  0
 35 55  1  0  0  0  0
 35 56  1  0  0  0  0
M  END
> <PUBCHEM_COMPOUND_CID>
490561

> <PUBCHEM_COMPOUND_CANONICALIZED>
1

> <PUBCHEM_CACTVS_COMPLEXITY>
977

> <PUBCHEM_CACTVS_HBOND_ACCEPTOR>
5

> <PUBCHEM_CACTVS_HBOND_DONOR>
2

> <PUBCHEM_CACTVS_ROTATABLE_BOND>
2

> <PUBCHEM_CACTVS_SUBSKEYS>
AAADceB7OAAAAAAAAAAAAAAAAAAAAWLFiQAwYMAABYAWAFix/gAAHgAQCAAADEzhngYyyPPMFgCoAyXyXAKCgCQlEiAI2KF4dNgLYP7AlZGeYQhnpgDbyQf+icCeyAACQAASACCQAASAACQAQAAAAAAAAA==

> <PUBCHEM_IUPAC_INCHI>
InChI=1S/C27H21N3O5/c1-26-27(33,25(32)34-2)11-18(35-26)29-16-9-5-3-7-13(16)20-21-15(12-28-24(21)31)19-14-8-4-6-10-17(14)30(26)23(19)22(20)29/h3-10,18,33H,11-12H2,1-2H3,(H,28,31)/t18-,26+,27+/m0/s1

> <PUBCHEM_IUPAC_INCHIKEY>
KOZFSFOOLUUIGY-IYYJOCMQSA-N

> <PUBCHEM_XLOGP3_AA>
2.8

> <PUBCHEM_EXACT_MASS>
467.148

> <PUBCHEM_MOLECULAR_FORMULA>
C27H21N3O5

> <PUBCHEM_MOLECULAR_WEIGHT>
467.481

> <PUBCHEM_OPENEYE_CAN_SMILES>
CC12C(CC(O1)N3C4=CC=CC=C4C5=C6C(=C7C8=CC=CC=C8N2C7=C53)CNC6=O)(C(=O)OC)O

> <PUBCHEM_OPENEYE_ISO_SMILES>
C[C@]12[C@@](C[C@H](O1)N3C4=CC=CC=C4C5=C6C(=C7C8=CC=CC=C8N2C7=C53)CNC6=O)(C(=O)OC)O

> <PUBCHEM_CACTVS_TPSA>
94.7

> <PUBCHEM_MONOISOTOPIC_WEIGHT>
467.148

> <PUBCHEM_TOTAL_CHARGE>
0

> <PUBCHEM_HEAVY_ATOM_COUNT>
35

> <PUBCHEM_ATOM_DEF_STEREO_COUNT>
3

> <PUBCHEM_ATOM_UDEF_STEREO_COUNT>
0

> <PUBCHEM_BOND_DEF_STEREO_COUNT>
0

> <PUBCHEM_BOND_UDEF_STEREO_COUNT>
0

> <PUBCHEM_ISOTOPIC_ATOM_COUNT>
0

> <PUBCHEM_COMPONENT_COUNT>
1

> <PUBCHEM_CACTVS_TAUTO_COUNT>
2

> <PUBCHEM_COORDINATE_TYPE>
1
5
255

> <PUBCHEM_BONDANNOTATIONS>
11  36  6
13  14  8
13  15  8
14  16  8
15  20  8
15  21  8
16  22  8
16  23  8
18  20  8
18  26  8
19  23  8
19  28  8
10  2  6
20  29  8
21  22  8
23  30  8
26  31  8
28  33  8
29  32  8
30  34  8
31  32  8
33  34  8
6  13  8
6  18  8
7  14  8
7  19  8
9  17  5

$$$$
19431169
  -OEChem-11021605012D

  9  8  0     0  0  0  0  0  0999 V2000
    3.7320   -0.1900    0.0000 N   0  0  0  0  0  0  0  0  0  0  0  0
    2.0000    0.8100    0.0000 N   0  0  0  0  0  0  0  0  0  0  0  0
    4.5981    0.3100    0.0000 C   0  0  0  0  0  0  0  0  0  0  0  0
    5.4641   -0.1900    0.0000 C   0  0  0  0  0  0  0  0  0  0  0  0
    2.8660    0.3100    0.0000 C   0  0  0  0  0  0  0  0  0  0  0  0
    4.5981    0.9300    0.0000 H   0  0  0  0  0  0  0  0  0  0  0  0
    3.7320   -0.8100    0.0000 H   0  0  0  0  0  0  0  0  0  0  0  0
    5.4641   -0.8100    0.0000 H   0  0  0  0  0  0  0  0  0  0  0  0
    6.0010    0.1200    0.0000 H   0  0  0  0  0  0  0  0  0  0  0  0
  1  3  1  0  0  0  0
  1  5  1  0  0  0  0
  1  7  1  0  0  0  0
  2  5  3  0  0  0  0
  3  4  2  0  0  0  0
  3  6  1  0  0  0  0
  4  8  1  0  0  0  0
  4  9  1  0  0  0  0
M  END
> <PUBCHEM_COMPOUND_CID>
19431169

> <PUBCHEM_COMPOUND_CANONICALIZED>
1

> <PUBCHEM_CACTVS_COMPLEXITY>
66.2

> <PUBCHEM_CACTVS_HBOND_ACCEPTOR>
2

> <PUBCHEM_CACTVS_HBOND_DONOR>
1

> <PUBCHEM_CACTVS_ROTATABLE_BOND>
1

> <PUBCHEM_CACTVS_SUBSKEYS>
AAADcYBDAAAAAAAAAAAAAAAAAAAAAAAAAAAAAAAAAAAAAAAAAAAAHAAQAAAAAADBAAQBAALAAACQAAAGQAAAAAAAAgAIAIAIAAAAAAAAAAAAAAAAAAAAAAAAAAAAAAAAAAAAAAAAAAAAAAAAAAAAAAAAAA==

> <PUBCHEM_IUPAC_OPENEYE_NAME>
vinylcyanamide

> <PUBCHEM_IUPAC_CAS_NAME>
ethenylcyanamide

> <PUBCHEM_IUPAC_NAME>
ethenylcyanamide

> <PUBCHEM_IUPAC_SYSTEMATIC_NAME>
ethenylcyanamide

> <PUBCHEM_IUPAC_TRADITIONAL_NAME>
vinylcyanamide

> <PUBCHEM_IUPAC_INCHI>
InChI=1S/C3H4N2/c1-2-5-3-4/h2,5H,1H2

> <PUBCHEM_IUPAC_INCHIKEY>
KHCDHZHDHPXIHE-UHFFFAOYSA-N

> <PUBCHEM_XLOGP3_AA>
0.9

> <PUBCHEM_EXACT_MASS>
68.037

> <PUBCHEM_MOLECULAR_FORMULA>
C3H4N2

> <PUBCHEM_MOLECULAR_WEIGHT>
68.079

> <PUBCHEM_OPENEYE_CAN_SMILES>
C=CNC#N

> <PUBCHEM_OPENEYE_ISO_SMILES>
C=CNC#N

> <PUBCHEM_CACTVS_TPSA>
35.8

> <PUBCHEM_MONOISOTOPIC_WEIGHT>
68.037

> <PUBCHEM_TOTAL_CHARGE>
0

> <PUBCHEM_HEAVY_ATOM_COUNT>
5

> <PUBCHEM_ATOM_DEF_STEREO_COUNT>
0

> <PUBCHEM_ATOM_UDEF_STEREO_COUNT>
0

> <PUBCHEM_BOND_DEF_STEREO_COUNT>
0

> <PUBCHEM_BOND_UDEF_STEREO_COUNT>
0

> <PUBCHEM_ISOTOPIC_ATOM_COUNT>
0

> <PUBCHEM_COMPONENT_COUNT>
1

> <PUBCHEM_CACTVS_TAUTO_COUNT>
1

> <PUBCHEM_COORDINATE_TYPE>
1
5
255

$$$$
447364
  -OEChem-11021605012D

 21 21  0     0  0  0  0  0  0999 V2000
    2.5369    1.3100    0.0000 O   0  0  0  0  0  0  0  0  0  0  0  0
    6.8671   -2.1900    0.0000 O   0  0  0  0  0  0  0  0  0  0  0  0
    5.1350   -2.1900    0.0000 O   0  0  0  0  0  0  0  0  0  0  0  0
    5.1350    2.8100    0.0000 O   0  5  0  0  0  0  0  0  0  0  0  0
    3.4030    2.8100    0.0000 O   0  0  0  0  0  0  0  0  0  0  0  0
    4.2690    2.3100    0.0000 N   0  3  0  0  0  0  0  0  0  0  0  0
    5.1350   -0.1900    0.0000 C   0  0  0  0  0  0  0  0  0  0  0  0
    6.0010   -0.6900    0.0000 C   0  0  0  0  0  0  0  0  0  0  0  0
    5.1350    0.8100    0.0000 C   0  0  0  0  0  0  0  0  0  0  0  0
    4.2690    1.3100    0.0000 C   0  0  0  0  0  0  0  0  0  0  0  0
    4.2690   -0.6900    0.0000 C   0  0  0  0  0  0  0  0  0  0  0  0
    3.4030    0.8100    0.0000 C   0  0  0  0  0  0  0  0  0  0  0  0
    3.4030   -0.1900    0.0000 C   0  0  0  0  0  0  0  0  0  0  0  0
    6.0010   -1.6900    0.0000 C   0  0  0  0  0  0  0  0  0  0  0  0
    6.6116   -0.7977    0.0000 H   0  0  0  0  0  0  0  0  0  0  0  0
    6.2131   -0.1074    0.0000 H   0  0  0  0  0  0  0  0  0  0  0  0
    5.6720    1.1200    0.0000 H   0  0  0  0  0  0  0  0  0  0  0  0
    4.2690   -1.3100    0.0000 H   0  0  0  0  0  0  0  0  0  0  0  0
    2.8660   -0.5000    0.0000 H   0  0  0  0  0  0  0  0  0  0  0  0
    2.0000    1.0000    0.0000 H   0  0  0  0  0  0  0  0  0  0  0  0
    6.8671   -2.8100    0.0000 H   0  0  0  0  0  0  0  0  0  0  0  0
  1 12  1  0  0  0  0
  1 20  1  0  0  0  0
  2 14  1  0  0  0  0
  2 21  1  0  0  0  0
  3 14  2  0  0  0  0
  4  6  1  0  0  0  0
  5  6  2  0  0  0  0
  6 10  1  0  0  0  0
  7  8  1  0  0  0  0
  7  9  2  0  0  0  0
  7 11  1  0  0  0  0
  8 14  1  0  0  0  0
  8 15  1  0  0  0  0
  8 16  1  0  0  0  0
  9 10  1  0  0  0  0
  9 17  1  0  0  0  0
 10 12  2  0  0  0  0
 11 13  2  0  0  0  0
 11 18  1  0  0  0  0
 12 13  1  0  0  0  0
 13 19  1  0  0  0  0
M  CHG  2   4  -1   6   1
M  END
> <PUBCHEM_COMPOUND_CID>
447364

> <PUBCHEM_COMPOUND_CANONICALIZED>
0

> <PUBCHEM_CACTVS_COMPLEXITY>
236

> <PUBCHEM_CACTVS_HBOND_ACCEPTOR>
5

> <PUBCHEM_CACTVS_HBOND_DONOR>
2

> <PUBCHEM_CACTVS_ROTATABLE_BOND>
2

> <PUBCHEM_CACTVS_SUBSKEYS>
AAADcYByOAAAAAAAAAAAAAAAAAAAAAAAAAAwAAAAAAAAAAABAAAAHgAECAAADAyBmAAwzoAQQgCJAiTSSwCCAAAgIgAoiAEHbIoKJjKSlZOAcABkwFEI2AeY2aGeIAAAQAAAEABAAACAAAAgAAAAAAAAAA==

> <PUBCHEM_IUPAC_INCHI>
InChI=1S/C8H7NO5/c10-7-2-1-5(4-8(11)12)3-6(7)9(13)14/h1-3,10H,4H2,(H,11,12)

> <PUBCHEM_IUPAC_INCHIKEY>
QBHBHOSRLDPIHG-UHFFFAOYSA-N

> <PUBCHEM_XLOGP3>
1.5

> <PUBCHEM_EXACT_MASS>
197.032

> <PUBCHEM_MOLECULAR_FORMULA>
C8H7NO5

> <PUBCHEM_MOLECULAR_WEIGHT>
197.146

> <PUBCHEM_OPENEYE_CAN_SMILES>
C1=CC(=C(C=C1CC(=O)O)[N+](=O)[O-])O

> <PUBCHEM_OPENEYE_ISO_SMILES>
C1=CC(=C(C=C1CC(=O)O)[N+](=O)[O-])O

> <PUBCHEM_CACTVS_TPSA>
103

> <PUBCHEM_MONOISOTOPIC_WEIGHT>
197.032

> <PUBCHEM_TOTAL_CHARGE>
0

> <PUBCHEM_HEAVY_ATOM_COUNT>
14

> <PUBCHEM_ATOM_DEF_STEREO_COUNT>
0

> <PUBCHEM_ATOM_UDEF_STEREO_COUNT>
0

> <PUBCHEM_BOND_DEF_STEREO_COUNT>
0

> <PUBCHEM_BOND_UDEF_STEREO_COUNT>
0

> <PUBCHEM_ISOTOPIC_ATOM_COUNT>
0

> <PUBCHEM_COMPONENT_COUNT>
1

> <PUBCHEM_CACTVS_TAUTO_COUNT>
7

> <PUBCHEM_COORDINATE_TYPE>
1
5
255

> <PUBCHEM_BONDANNOTATIONS>
10  12  8
11  13  8
12  13  8
7  11  8
7  9  8
9  10  8

$$$$
4155347
  -OEChem-11021605012D

 50 52  0     0  0  0  0  0  0999 V2000
    2.5369    2.5002    0.0000 O   0  0  0  0  0  0  0  0  0  0  0  0
    5.1350   -1.9998    0.0000 O   0  0  0  0  0  0  0  0  0  0  0  0
    9.5453    2.3050    0.0000 N   0  0  0  0  0  0  0  0  0  0  0  0
    9.5453    0.6955    0.0000 N   0  0  0  0  0  0  0  0  0  0  0  0
    7.7331    2.5002    0.0000 N   0  0  0  0  0  0  0  0  0  0  0  0
    7.7331   -0.4998    0.0000 N   0  0  0  0  0  0  0  0  0  0  0  0
    6.8671    1.0002    0.0000 N   0  0  0  0  0  0  0  0  0  0  0  0
    6.0010    2.5002    0.0000 N   0  0  0  0  0  0  0  0  0  0  0  0
    9.8560    3.2555    0.0000 C   0  0  0  0  0  0  0  0  0  0  0  0
    8.5991    2.0002    0.0000 C   0  0  0  0  0  0  0  0  0  0  0  0
    8.5991    1.0002    0.0000 C   0  0  0  0  0  0  0  0  0  0  0  0
    7.7331    0.5002    0.0000 C   0  0  0  0  0  0  0  0  0  0  0  0
   10.1289    1.5002    0.0000 C   0  0  0  0  0  0  0  0  0  0  0  0
   10.8345    3.4617    0.0000 C   0  0  0  0  0  0  0  0  0  0  0  0
    9.1882    3.9998    0.0000 C   0  0  0  0  0  0  0  0  0  0  0  0
    6.8671    2.0002    0.0000 C   0  0  0  0  0  0  0  0  0  0  0  0
    6.8671   -0.9998    0.0000 C   0  0  0  0  0  0  0  0  0  0  0  0
    5.1350    2.0002    0.0000 C   0  0  0  0  0  0  0  0  0  0  0  0
    4.2690    2.5002    0.0000 C   0  0  0  0  0  0  0  0  0  0  0  0
    6.8671   -1.9998    0.0000 C   0  0  0  0  0  0  0  0  0  0  0  0
    3.4030    2.0002    0.0000 C   0  0  0  0  0  0  0  0  0  0  0  0
    6.0010   -2.4998    0.0000 C   0  0  0  0  0  0  0  0  0  0  0  0
    7.7331   -2.4998    0.0000 C   0  0  0  0  0  0  0  0  0  0  0  0
    6.0010   -3.4998    0.0000 C   0  0  0  0  0  0  0  0  0  0  0  0
    7.7331   -3.4998    0.0000 C   0  0  0  0  0  0  0  0  0  0  0  0
    6.8671   -3.9998    0.0000 C   0  0  0  0  0  0  0  0  0  0  0  0
   10.2701    2.7940    0.0000 H   0  0  0  0  0  0  0  0  0  0  0  0
   10.7489    1.5002    0.0000 H   0  0  0  0  0  0  0  0  0  0  0  0
    9.6496    4.4138    0.0000 H   0  0  0  0  0  0  0  0  0  0  0  0
    8.7741    4.4612    0.0000 H   0  0  0  0  0  0  0  0  0  0  0  0
   10.9624    2.8550    0.0000 H   0  0  0  0  0  0  0  0  0  0  0  0
   11.4412    3.5896    0.0000 H   0  0  0  0  0  0  0  0  0  0  0  0
   10.7066    4.0684    0.0000 H   0  0  0  0  0  0  0  0  0  0  0  0
    8.7267    3.5857    0.0000 H   0  0  0  0  0  0  0  0  0  0  0  0
    8.2700   -0.8098    0.0000 H   0  0  0  0  0  0  0  0  0  0  0  0
    6.6550   -0.4172    0.0000 H   0  0  0  0  0  0  0  0  0  0  0  0
    6.2565   -1.1074    0.0000 H   0  0  0  0  0  0  0  0  0  0  0  0
    4.7365    1.5253    0.0000 H   0  0  0  0  0  0  0  0  0  0  0  0
    5.5335    1.5253    0.0000 H   0  0  0  0  0  0  0  0  0  0  0  0
    6.0010    3.1202    0.0000 H   0  0  0  0  0  0  0  0  0  0  0  0
    4.6675    2.9752    0.0000 H   0  0  0  0  0  0  0  0  0  0  0  0
    3.8705    2.9752    0.0000 H   0  0  0  0  0  0  0  0  0  0  0  0
    3.0044    1.5253    0.0000 H   0  0  0  0  0  0  0  0  0  0  0  0
    3.8015    1.5253    0.0000 H   0  0  0  0  0  0  0  0  0  0  0  0
    8.2700   -2.1898    0.0000 H   0  0  0  0  0  0  0  0  0  0  0  0
    5.4641   -3.8098    0.0000 H   0  0  0  0  0  0  0  0  0  0  0  0
    8.2700   -3.8098    0.0000 H   0  0  0  0  0  0  0  0  0  0  0  0
    6.8671   -4.6198    0.0000 H   0  0  0  0  0  0  0  0  0  0  0  0
    2.0000    2.1902    0.0000 H   0  0  0  0  0  0  0  0  0  0  0  0
    4.5981   -2.3098    0.0000 H   0  0  0  0  0  0  0  0  0  0  0  0
  1 21  1  0  0  0  0
  1 49  1  0  0  0  0
  2 22  1  0  0  0  0
  2 50  1  0  0  0  0
  3  9  1  0  0  0  0
  3 10  1  0  0  0  0
  3 13  1  0  0  0  0
  4 11  1  0  0  0  0
  4 13  2  0  0  0  0
  5 10  2  0  0  0  0
  5 16  1  0  0  0  0
  6 12  1  0  0  0  0
  6 17  1  0  0  0  0
  6 35  1  0  0  0  0
  7 12  1  0  0  0  0
  7 16  2  0  0  0  0
  8 16  1  0  0  0  0
  8 18  1  0  0  0  0
  8 40  1  0  0  0  0
  9 14  1  0  0  0  0
  9 15  1  0  0  0  0
  9 27  1  0  0  0  0
 10 11  1  0  0  0  0
 11 12  2  0  0  0  0
 13 28  1  0  0  0  0
 14 31  1  0  0  0  0
 14 32  1  0  0  0  0
 14 33  1  0  0  0  0
 15 29  1  0  0  0  0
 15 30  1  0  0  0  0
 15 34  1  0  0  0  0
 17 20  1  0  0  0  0
 17 36  1  0  0  0  0
 17 37  1  0  0  0  0
 18 19  1  0  0  0  0
 18 38  1  0  0  0  0
 18 39  1  0  0  0  0
 19 21  1  0  0  0  0
 19 41  1  0  0  0  0
 19 42  1  0  0  0  0
 20 22  1  0  0  0  0
 20 23  2  0  0  0  0
 21 43  1  0  0  0  0
 21 44  1  0  0  0  0
 22 24  2  0  0  0  0
 23 25  1  0  0  0  0
 23 45  1  0  0  0  0
 24 26  1  0  0  0  0
 24 46  1  0  0  0  0
 25 26  2  0  0  0  0
 25 47  1  0  0  0  0
 26 48  1  0  0  0  0
M  END
> <PUBCHEM_COMPOUND_CID>
4155347

> <PUBCHEM_COMPOUND_CANONICALIZED>
1

> <PUBCHEM_CACTVS_COMPLEXITY>
427

> <PUBCHEM_CACTVS_HBOND_ACCEPTOR>
7

> <PUBCHEM_CACTVS_HBOND_DONOR>
4

> <PUBCHEM_CACTVS_ROTATABLE_BOND>
8

> <PUBCHEM_CACTVS_SUBSKEYS>
AAADceB7sAAAAAAAAAAAAAAAAAAAAWAAAAA8QAAAAAAAAFgB/AAAHgAQCAAADCzhnwY39r/MEgCgAyZjZACCgC0xMKAJ2KAuXJiIfiLC2VOUdAhu0BPImCeQwCAOAAAAAAAIAAAAAAAAABAAAAAAAAAAAA==

> <PUBCHEM_IUPAC_OPENEYE_NAME>
2-[[[2-(3-hydroxypropylamino)-9-isopropyl-purin-6-yl]amino]methyl]phenol

> <PUBCHEM_IUPAC_CAS_NAME>
2-[[[2-(3-hydroxypropylamino)-9-propan-2-yl-6-purinyl]amino]methyl]phenol

> <PUBCHEM_IUPAC_NAME>
2-[[[2-(3-hydroxypropylamino)-9-propan-2-ylpurin-6-yl]amino]methyl]phenol

> <PUBCHEM_IUPAC_SYSTEMATIC_NAME>
2-[[[2-(3-oxidanylpropylamino)-9-propan-2-yl-purin-6-yl]amino]methyl]phenol

> <PUBCHEM_IUPAC_TRADITIONAL_NAME>
2-[[[2-(3-hydroxypropylamino)-9-isopropyl-purin-6-yl]amino]methyl]phenol

> <PUBCHEM_IUPAC_INCHI>
InChI=1S/C18H24N6O2/c1-12(2)24-11-21-15-16(20-10-13-6-3-4-7-14(13)26)22-18(23-17(15)24)19-8-5-9-25/h3-4,6-7,11-12,25-26H,5,8-10H2,1-2H3,(H2,19,20,22,23)

> <PUBCHEM_IUPAC_INCHIKEY>
HFIXLXXNEZMSGH-UHFFFAOYSA-N

> <PUBCHEM_XLOGP3_AA>
2.8

> <PUBCHEM_EXACT_MASS>
356.196

> <PUBCHEM_MOLECULAR_FORMULA>
C18H24N6O2

> <PUBCHEM_MOLECULAR_WEIGHT>
356.43

> <PUBCHEM_OPENEYE_CAN_SMILES>
CC(C)N1C=NC2=C1N=C(N=C2NCC3=CC=CC=C3O)NCCCO

> <PUBCHEM_OPENEYE_ISO_SMILES>
CC(C)N1C=NC2=C1N=C(N=C2NCC3=CC=CC=C3O)NCCCO

> <PUBCHEM_CACTVS_TPSA>
108

> <PUBCHEM_MONOISOTOPIC_WEIGHT>
356.196

> <PUBCHEM_TOTAL_CHARGE>
0

> <PUBCHEM_HEAVY_ATOM_COUNT>
26

> <PUBCHEM_ATOM_DEF_STEREO_COUNT>
0

> <PUBCHEM_ATOM_UDEF_STEREO_COUNT>
0

> <PUBCHEM_BOND_DEF_STEREO_COUNT>
0

> <PUBCHEM_BOND_UDEF_STEREO_COUNT>
0

> <PUBCHEM_ISOTOPIC_ATOM_COUNT>
0

> <PUBCHEM_COMPONENT_COUNT>
1

> <PUBCHEM_CACTVS_TAUTO_COUNT>
18

> <PUBCHEM_COORDINATE_TYPE>
1
5
255

> <PUBCHEM_BONDANNOTATIONS>
10  11  8
11  12  8
20  22  8
20  23  8
22  24  8
23  25  8
24  26  8
25  26  8
3  10  8
3  13  8
4  11  8
4  13  8
5  10  8
5  16  8
7  12  8
7  16  8

$$$$
9868770
  -OEChem-11021605012D

 60 63  0     0  0  0  0  0  0999 V2000
   11.0154    5.1810    0.0000 O   0  0  0  0  0  0  0  0  0  0  0  0
    8.9512    8.0324    0.0000 O   0  0  0  0  0  0  0  0  0  0  0  0
    2.2690    5.1485    0.0000 O   0  0  0  0  0  0  0  0  0  0  0  0
    1.4030    3.6485    0.0000 O   0  0  0  0  0  0  0  0  0  0  0  0
    8.9452    2.9028    0.0000 N   0  0  0  0  0  0  0  0  0  0  0  0
    6.1387    5.7772    0.0000 N   0  0  0  0  0  0  0  0  0  0  0  0
   10.2091    6.7702    0.0000 N   0  0  0  0  0  0  0  0  0  0  0  0
   11.5235    0.5893    0.0000 N   0  0  0  0  0  0  0  0  0  0  0  0
    8.9452    4.5123    0.0000 C   0  0  0  0  0  0  0  0  0  0  0  0
    7.9989    4.2075    0.0000 C   0  0  0  0  0  0  0  0  0  0  0  0
    9.2558    5.4628    0.0000 C   0  0  0  0  0  0  0  0  0  0  0  0
    7.9989    3.2075    0.0000 C   0  0  0  0  0  0  0  0  0  0  0  0
    8.6694    6.2728    0.0000 C   0  0  0  0  0  0  0  0  0  0  0  0
    9.5288    3.7075    0.0000 C   0  0  0  0  0  0  0  0  0  0  0  0
    9.2558    1.9523    0.0000 C   0  0  0  0  0  0  0  0  0  0  0  0
    7.6694    6.2745    0.0000 C   0  0  0  0  0  0  0  0  0  0  0  0
    7.0872    7.0803    0.0000 C   0  0  0  0  0  0  0  0  0  0  0  0
   10.2343    1.7461    0.0000 C   0  0  0  0  0  0  0  0  0  0  0  0
    6.1362    6.7713    0.0000 C   0  0  0  0  0  0  0  0  0  0  0  0
   10.2074    5.7702    0.0000 C   0  0  0  0  0  0  0  0  0  0  0  0
    7.0844    5.4708    0.0000 C   0  0  0  0  0  0  0  0  0  0  0  0
    9.2586    7.0808    0.0000 C   0  0  0  0  0  0  0  0  0  0  0  0
    7.1329    4.7075    0.0000 C   0  0  0  0  0  0  0  0  0  0  0  0
    7.1329    2.7075    0.0000 C   0  0  0  0  0  0  0  0  0  0  0  0
   10.5450    0.7955    0.0000 C   0  0  0  0  0  0  0  0  0  0  0  0
    7.2951    8.0584    0.0000 C   0  0  0  0  0  0  0  0  0  0  0  0
    6.2669    4.2075    0.0000 C   0  0  0  0  0  0  0  0  0  0  0  0
    6.2669    3.2075    0.0000 C   0  0  0  0  0  0  0  0  0  0  0  0
    5.3930    7.4404    0.0000 C   0  0  0  0  0  0  0  0  0  0  0  0
    5.3307    5.1880    0.0000 C   0  0  0  0  0  0  0  0  0  0  0  0
    6.5520    8.7276    0.0000 C   0  0  0  0  0  0  0  0  0  0  0  0
    5.6009    8.4186    0.0000 C   0  0  0  0  0  0  0  0  0  0  0  0
    0.5369    5.1485    0.0000 C   0  0  0  0  0  0  0  0  0  0  0  0
    1.4030    4.6485    0.0000 C   0  0  0  0  0  0  0  0  0  0  0  0
   10.1488    3.7075    0.0000 H   0  0  0  0  0  0  0  0  0  0  0  0
    8.6420    1.8649    0.0000 H   0  0  0  0  0  0  0  0  0  0  0  0
    9.2352    1.3326    0.0000 H   0  0  0  0  0  0  0  0  0  0  0  0
   10.8481    1.8334    0.0000 H   0  0  0  0  0  0  0  0  0  0  0  0
   10.2549    2.3657    0.0000 H   0  0  0  0  0  0  0  0  0  0  0  0
    7.2760    4.8812    0.0000 H   0  0  0  0  0  0  0  0  0  0  0  0
    7.1329    5.3275    0.0000 H   0  0  0  0  0  0  0  0  0  0  0  0
    7.1329    2.0875    0.0000 H   0  0  0  0  0  0  0  0  0  0  0  0
   10.7114    7.1337    0.0000 H   0  0  0  0  0  0  0  0  0  0  0  0
    9.9312    0.7082    0.0000 H   0  0  0  0  0  0  0  0  0  0  0  0
   10.5244    0.1759    0.0000 H   0  0  0  0  0  0  0  0  0  0  0  0
    7.8848    8.2500    0.0000 H   0  0  0  0  0  0  0  0  0  0  0  0
    5.7300    4.5175    0.0000 H   0  0  0  0  0  0  0  0  0  0  0  0
    5.7300    2.8975    0.0000 H   0  0  0  0  0  0  0  0  0  0  0  0
    4.8034    7.2488    0.0000 H   0  0  0  0  0  0  0  0  0  0  0  0
    4.9654    5.6890    0.0000 H   0  0  0  0  0  0  0  0  0  0  0  0
    4.8298    4.8227    0.0000 H   0  0  0  0  0  0  0  0  0  0  0  0
    5.6960    4.6870    0.0000 H   0  0  0  0  0  0  0  0  0  0  0  0
    6.6809    9.3340    0.0000 H   0  0  0  0  0  0  0  0  0  0  0  0
    5.1402    8.8334    0.0000 H   0  0  0  0  0  0  0  0  0  0  0  0
   11.7161    0.0000    0.0000 H   0  0  0  0  0  0  0  0  0  0  0  0
   11.9376    1.0508    0.0000 H   0  0  0  0  0  0  0  0  0  0  0  0
    0.8469    5.6855    0.0000 H   0  0  0  0  0  0  0  0  0  0  0  0
    0.0000    5.4585    0.0000 H   0  0  0  0  0  0  0  0  0  0  0  0
    0.2269    4.6116    0.0000 H   0  0  0  0  0  0  0  0  0  0  0  0
    2.8059    4.8385    0.0000 H   0  0  0  0  0  0  0  0  0  0  0  0
  1 20  2  0  0  0  0
  2 22  2  0  0  0  0
  3 34  1  0  0  0  0
  3 60  1  0  0  0  0
  4 34  2  0  0  0  0
  5 12  1  0  0  0  0
  5 14  1  0  0  0  0
  5 15  1  0  0  0  0
  6 19  1  0  0  0  0
  6 21  1  0  0  0  0
  6 30  1  0  0  0  0
  7 20  1  0  0  0  0
  7 22  1  0  0  0  0
  7 43  1  0  0  0  0
  8 25  1  0  0  0  0
  8 55  1  0  0  0  0
  8 56  1  0  0  0  0
  9 10  1  0  0  0  0
  9 11  1  0  0  0  0
  9 14  2  0  0  0  0
 10 12  1  0  0  0  0
 10 23  2  0  0  0  0
 11 13  2  0  0  0  0
 11 20  1  0  0  0  0
 12 24  2  0  0  0  0
 13 16  1  0  0  0  0
 13 22  1  0  0  0  0
 14 35  1  0  0  0  0
 15 18  1  0  0  0  0
 15 36  1  0  0  0  0
 15 37  1  0  0  0  0
 16 17  1  0  0  0  0
 16 21  2  0  0  0  0
 17 19  1  0  0  0  0
 17 26  2  0  0  0  0
 18 25  1  0  0  0  0
 18 38  1  0  0  0  0
 18 39  1  0  0  0  0
 19 29  2  0  0  0  0
 21 40  1  0  0  0  0
 23 27  1  0  0  0  0
 23 41  1  0  0  0  0
 24 28  1  0  0  0  0
 24 42  1  0  0  0  0
 25 44  1  0  0  0  0
 25 45  1  0  0  0  0
 26 31  1  0  0  0  0
 26 46  1  0  0  0  0
 27 28  2  0  0  0  0
 27 47  1  0  0  0  0
 28 48  1  0  0  0  0
 29 32  1  0  0  0  0
 29 49  1  0  0  0  0
 30 50  1  0  0  0  0
 30 51  1  0  0  0  0
 30 52  1  0  0  0  0
 31 32  2  0  0  0  0
 31 53  1  0  0  0  0
 32 54  1  0  0  0  0
 33 34  1  0  0  0  0
 33 57  1  0  0  0  0
 33 58  1  0  0  0  0
 33 59  1  0  0  0  0
M  END
> <PUBCHEM_COMPOUND_CID>
9868770

> <PUBCHEM_COMPOUND_CANONICALIZED>
1

> <PUBCHEM_CACTVS_COMPLEXITY>
766

> <PUBCHEM_CACTVS_HBOND_ACCEPTOR>
5

> <PUBCHEM_CACTVS_HBOND_DONOR>
3

> <PUBCHEM_CACTVS_ROTATABLE_BOND>
5

> <PUBCHEM_CACTVS_SUBSKEYS>
AAADceB7uAAAAAAAAAAAAAAAAAAAAWLEAAAwYAAAAAAAAFgB/gAAHgAQCAAADAjBngQ+yPPMEgCoAzX3XACCgCAxAiAI2KE4ZNgIIPLA1ZGEIAhglCDIyQccicCegAAAAAACAAAAAAAAAAQAAAAAAAAAAA==

> <PUBCHEM_IUPAC_OPENEYE_NAME>
acetic acid;3-[1-(3-aminopropyl)indol-3-yl]-4-(1-methylindol-3-yl)pyrrole-2,5-dione

> <PUBCHEM_IUPAC_CAS_NAME>
acetic acid;3-[1-(3-aminopropyl)-3-indolyl]-4-(1-methyl-3-indolyl)pyrrole-2,5-dione

> <PUBCHEM_IUPAC_NAME>
acetic acid;3-[1-(3-aminopropyl)indol-3-yl]-4-(1-methylindol-3-yl)pyrrole-2,5-dione

> <PUBCHEM_IUPAC_SYSTEMATIC_NAME>
3-[1-(3-azanylpropyl)indol-3-yl]-4-(1-methylindol-3-yl)pyrrole-2,5-dione;ethanoic acid

> <PUBCHEM_IUPAC_TRADITIONAL_NAME>
acetic acid;3-[1-(3-aminopropyl)indol-3-yl]-4-(1-methylindol-3-yl)-3-pyrroline-2,5-quinone

> <PUBCHEM_IUPAC_INCHI>
InChI=1S/C24H22N4O2.C2H4O2/c1-27-13-17(15-7-2-4-9-19(15)27)21-22(24(30)26-23(21)29)18-14-28(12-6-11-25)20-10-5-3-8-16(18)20;1-2(3)4/h2-5,7-10,13-14H,6,11-12,25H2,1H3,(H,26,29,30);1H3,(H,3,4)

> <PUBCHEM_IUPAC_INCHIKEY>
VEOXVBTXROWDAH-UHFFFAOYSA-N

> <PUBCHEM_EXACT_MASS>
458.195

> <PUBCHEM_MOLECULAR_FORMULA>
C26H26N4O4

> <PUBCHEM_MOLECULAR_WEIGHT>
458.518

> <PUBCHEM_OPENEYE_CAN_SMILES>
CC(=O)O.CN1C=C(C2=CC=CC=C21)C3=C(C(=O)NC3=O)C4=CN(C5=CC=CC=C54)CCCN

> <PUBCHEM_OPENEYE_ISO_SMILES>
CC(=O)O.CN1C=C(C2=CC=CC=C21)C3=C(C(=O)NC3=O)C4=CN(C5=CC=CC=C54)CCCN

> <PUBCHEM_CACTVS_TPSA>
119

> <PUBCHEM_MONOISOTOPIC_WEIGHT>
458.195

> <PUBCHEM_TOTAL_CHARGE>
0

> <PUBCHEM_HEAVY_ATOM_COUNT>
34

> <PUBCHEM_ATOM_DEF_STEREO_COUNT>
0

> <PUBCHEM_ATOM_UDEF_STEREO_COUNT>
0

> <PUBCHEM_BOND_DEF_STEREO_COUNT>
0

> <PUBCHEM_BOND_UDEF_STEREO_COUNT>
0

> <PUBCHEM_ISOTOPIC_ATOM_COUNT>
0

> <PUBCHEM_COMPONENT_COUNT>
2

> <PUBCHEM_CACTVS_TAUTO_COUNT>
3

> <PUBCHEM_COORDINATE_TYPE>
1
5
255

> <PUBCHEM_BONDANNOTATIONS>
10  12  8
10  23  8
12  24  8
16  17  8
16  21  8
17  19  8
17  26  8
19  29  8
23  27  8
24  28  8
26  31  8
27  28  8
29  32  8
31  32  8
5  12  8
5  14  8
6  19  8
6  21  8
9  10  8
9  14  8

$$$$
44450656
  -OEChem-11021605012D

 37 42  0     0  0  0  0  0  0999 V2000
    4.2215   -4.2067    0.0000 O   0  0  0  0  0  0  0  0  0  0  0  0
    2.0314   -0.8171    0.0000 N   0  0  0  0  0  0  0  0  0  0  0  0
    2.0314    1.5170    0.0000 N   0  0  0  0  0  0  0  0  0  0  0  0
    6.0303    0.3500    0.0000 N   0  0  0  0  0  0  0  0  0  0  0  0
    3.6344    1.3500    0.0000 C   0  0  0  0  0  0  0  0  0  0  0  0
    3.6344   -0.6500    0.0000 C   0  0  0  0  0  0  0  0  0  0  0  0
    2.7684    0.8500    0.0000 C   0  0  0  0  0  0  0  0  0  0  0  0
    2.7684   -0.1500    0.0000 C   0  0  0  0  0  0  0  0  0  0  0  0
    3.4252    2.3218    0.0000 C   0  0  0  0  0  0  0  0  0  0  0  0
    4.5005    0.8500    0.0000 C   0  0  0  0  0  0  0  0  0  0  0  0
    4.5005   -0.1500    0.0000 C   0  0  0  0  0  0  0  0  0  0  0  0
    3.4252   -1.6219    0.0000 C   0  0  0  0  0  0  0  0  0  0  0  0
    2.4365   -1.7249    0.0000 C   0  0  0  0  0  0  0  0  0  0  0  0
    4.0460    3.1505    0.0000 C   0  0  0  0  0  0  0  0  0  0  0  0
    2.4365    2.4248    0.0000 C   0  0  0  0  0  0  0  0  0  0  0  0
    2.0000   -2.6639    0.0000 C   0  0  0  0  0  0  0  0  0  0  0  0
    3.6313    4.0993    0.0000 C   0  0  0  0  0  0  0  0  0  0  0  0
    2.6014   -3.5068    0.0000 C   0  0  0  0  0  0  0  0  0  0  0  0
    4.0460   -2.4506    0.0000 C   0  0  0  0  0  0  0  0  0  0  0  0
    5.4467    1.1547    0.0000 C   0  0  0  0  0  0  0  0  0  0  0  0
    5.4467   -0.4548    0.0000 C   0  0  0  0  0  0  0  0  0  0  0  0
    2.0000    3.3638    0.0000 C   0  0  0  0  0  0  0  0  0  0  0  0
    3.6313   -3.3994    0.0000 C   0  0  0  0  0  0  0  0  0  0  0  0
    2.6014    4.2067    0.0000 C   0  0  0  0  0  0  0  0  0  0  0  0
    4.4713    2.6994    0.0000 H   0  0  0  0  0  0  0  0  0  0  0  0
    4.5632    3.4924    0.0000 H   0  0  0  0  0  0  0  0  0  0  0  0
    1.4908   -2.3102    0.0000 H   0  0  0  0  0  0  0  0  0  0  0  0
    1.5644   -3.1050    0.0000 H   0  0  0  0  0  0  0  0  0  0  0  0
    4.2335    4.2468    0.0000 H   0  0  0  0  0  0  0  0  0  0  0  0
    3.5891    4.7179    0.0000 H   0  0  0  0  0  0  0  0  0  0  0  0
    2.0426   -3.7752    0.0000 H   0  0  0  0  0  0  0  0  0  0  0  0
    2.7703   -4.1033    0.0000 H   0  0  0  0  0  0  0  0  0  0  0  0
    4.6619   -2.3792    0.0000 H   0  0  0  0  0  0  0  0  0  0  0  0
    5.6393    1.7440    0.0000 H   0  0  0  0  0  0  0  0  0  0  0  0
    5.6393   -1.0441    0.0000 H   0  0  0  0  0  0  0  0  0  0  0  0
    1.3826    3.4209    0.0000 H   0  0  0  0  0  0  0  0  0  0  0  0
    2.3466    4.7719    0.0000 H   0  0  0  0  0  0  0  0  0  0  0  0
  1 23  2  0  0  0  0
  2  8  1  0  0  0  0
  2 13  2  0  0  0  0
  3  7  2  0  0  0  0
  3 15  1  0  0  0  0
  4 20  2  0  0  0  0
  4 21  1  0  0  0  0
  5  7  1  0  0  0  0
  5  9  1  0  0  0  0
  5 10  2  0  0  0  0
  6  8  2  0  0  0  0
  6 11  1  0  0  0  0
  6 12  1  0  0  0  0
  7  8  1  0  0  0  0
  9 14  1  0  0  0  0
  9 15  2  0  0  0  0
 10 11  1  0  0  0  0
 10 20  1  0  0  0  0
 11 21  2  0  0  0  0
 12 13  1  0  0  0  0
 12 19  2  0  0  0  0
 13 16  1  0  0  0  0
 14 17  1  0  0  0  0
 14 25  1  0  0  0  0
 14 26  1  0  0  0  0
 15 22  1  0  0  0  0
 16 18  1  0  0  0  0
 16 27  1  0  0  0  0
 16 28  1  0  0  0  0
 17 24  1  0  0  0  0
 17 29  1  0  0  0  0
 17 30  1  0  0  0  0
 18 23  1  0  0  0  0
 18 31  1  0  0  0  0
 18 32  1  0  0  0  0
 19 23  1  0  0  0  0
 19 33  1  0  0  0  0
 20 34  1  0  0  0  0
 21 35  1  0  0  0  0
 22 24  2  0  0  0  0
 22 36  1  0  0  0  0
 24 37  1  0  0  0  0
M  END
> <PUBCHEM_COMPOUND_CID>
44450656

> <PUBCHEM_COMPOUND_CANONICALIZED>
1

> <PUBCHEM_CACTVS_COMPLEXITY>
1050

> <PUBCHEM_CACTVS_HBOND_ACCEPTOR>
4

> <PUBCHEM_CACTVS_HBOND_DONOR>
0

> <PUBCHEM_CACTVS_ROTATABLE_BOND>
0

> <PUBCHEM_CACTVS_SUBSKEYS>
AAADccB7IAAAAAAAAAAAAAAAAAAAAQIEAAAgQIAAAAAAAEAAAAAAHgAAAAAADAzBgAQAAAIAAACoA7R3RACAAAAgAAAICAEwAFgIABIAgQAAAAAAgAAIgQMYiICAAAAAAAAAAAAAAAAAAAAAAAAAAAAAAA==

> <PUBCHEM_IUPAC_INCHI>
InChI=1S/C20H13N3O/c24-10-5-6-16-12(7-10)18-14-9-21-8-13(14)17-11-3-1-2-4-15(11)22-19(17)20(18)23-16/h2,4,7-9H,1,3,5-6H2

> <PUBCHEM_IUPAC_INCHIKEY>
PHDKVGDOQAPEIU-UHFFFAOYSA-N

> <PUBCHEM_XLOGP3_AA>
1.4

> <PUBCHEM_EXACT_MASS>
311.106

> <PUBCHEM_MOLECULAR_FORMULA>
C20H13N3O

> <PUBCHEM_MOLECULAR_WEIGHT>
311.344

> <PUBCHEM_OPENEYE_CAN_SMILES>
C1CC2=C(C=C1)N=C3C2=C4C=NC=C4C5=C3N=C6C5=CC(=O)CC6

> <PUBCHEM_OPENEYE_ISO_SMILES>
C1CC2=C(C=C1)N=C3C2=C4C=NC=C4C5=C3N=C6C5=CC(=O)CC6

> <PUBCHEM_CACTVS_TPSA>
54.2

> <PUBCHEM_MONOISOTOPIC_WEIGHT>
311.106

> <PUBCHEM_TOTAL_CHARGE>
0

> <PUBCHEM_HEAVY_ATOM_COUNT>
24

> <PUBCHEM_ATOM_DEF_STEREO_COUNT>
0

> <PUBCHEM_ATOM_UDEF_STEREO_COUNT>
0

> <PUBCHEM_BOND_DEF_STEREO_COUNT>
0

> <PUBCHEM_BOND_UDEF_STEREO_COUNT>
0

> <PUBCHEM_ISOTOPIC_ATOM_COUNT>
0

> <PUBCHEM_COMPONENT_COUNT>
1

> <PUBCHEM_CACTVS_TAUTO_COUNT>
230

> <PUBCHEM_COORDINATE_TYPE>
1
5
255

> <PUBCHEM_BONDANNOTATIONS>
10  11  8
5  10  8
5  7  8
6  11  8
6  8  8
7  8  8

$$$$
44350572
  -OEChem-11021605012D

 52 54  0     0  0  0  0  0  0999 V2000
    5.1350    3.7500    0.0000 Cl  0  0  0  0  0  0  0  0  0  0  0  0
    2.5369   -1.7500    0.0000 O   0  0  0  0  0  0  0  0  0  0  0  0
    5.1350   -2.2500    0.0000 N   0  0  0  0  0  0  0  0  0  0  0  0
    8.6793   -2.0547    0.0000 N   0  0  0  0  0  0  0  0  0  0  0  0
    6.8671   -2.2500    0.0000 N   0  0  0  0  0  0  0  0  0  0  0  0
    6.0010   -0.7500    0.0000 N   0  0  0  0  0  0  0  0  0  0  0  0
    8.6793   -0.4453    0.0000 N   0  0  0  0  0  0  0  0  0  0  0  0
    6.8671    0.7500    0.0000 N   0  0  0  0  0  0  0  0  0  0  0  0
    5.1350   -3.2500    0.0000 C   0  0  0  0  0  0  0  0  0  0  0  0
    8.9900   -3.0053    0.0000 C   0  0  0  0  0  0  0  0  0  0  0  0
    7.7331   -1.7500    0.0000 C   0  0  0  0  0  0  0  0  0  0  0  0
    6.0010   -1.7500    0.0000 C   0  0  0  0  0  0  0  0  0  0  0  0
    4.2690   -1.7500    0.0000 C   0  0  0  0  0  0  0  0  0  0  0  0
    7.7331   -0.7500    0.0000 C   0  0  0  0  0  0  0  0  0  0  0  0
    6.8671   -0.2500    0.0000 C   0  0  0  0  0  0  0  0  0  0  0  0
    4.2690   -3.7500    0.0000 C   0  0  0  0  0  0  0  0  0  0  0  0
    6.0010   -3.7500    0.0000 C   0  0  0  0  0  0  0  0  0  0  0  0
    9.2629   -1.2500    0.0000 C   0  0  0  0  0  0  0  0  0  0  0  0
    9.9685   -3.2115    0.0000 C   0  0  0  0  0  0  0  0  0  0  0  0
    8.3221   -3.7496    0.0000 C   0  0  0  0  0  0  0  0  0  0  0  0
    3.4030   -2.2500    0.0000 C   0  0  0  0  0  0  0  0  0  0  0  0
    6.0010    1.2500    0.0000 C   0  0  0  0  0  0  0  0  0  0  0  0
    6.0010    2.2500    0.0000 C   0  0  0  0  0  0  0  0  0  0  0  0
    5.1350    0.7500    0.0000 C   0  0  0  0  0  0  0  0  0  0  0  0
    5.1350    2.7500    0.0000 C   0  0  0  0  0  0  0  0  0  0  0  0
    4.2690    1.2500    0.0000 C   0  0  0  0  0  0  0  0  0  0  0  0
    4.2690    2.2500    0.0000 C   0  0  0  0  0  0  0  0  0  0  0  0
    5.6720   -2.9400    0.0000 H   0  0  0  0  0  0  0  0  0  0  0  0
    9.1826   -3.5946    0.0000 H   0  0  0  0  0  0  0  0  0  0  0  0
    4.6675   -1.2750    0.0000 H   0  0  0  0  0  0  0  0  0  0  0  0
    3.8705   -1.2750    0.0000 H   0  0  0  0  0  0  0  0  0  0  0  0
    3.9590   -3.2131    0.0000 H   0  0  0  0  0  0  0  0  0  0  0  0
    3.7320   -4.0600    0.0000 H   0  0  0  0  0  0  0  0  0  0  0  0
    4.5790   -4.2869    0.0000 H   0  0  0  0  0  0  0  0  0  0  0  0
    5.6910   -4.2869    0.0000 H   0  0  0  0  0  0  0  0  0  0  0  0
    6.5380   -4.0600    0.0000 H   0  0  0  0  0  0  0  0  0  0  0  0
    6.3110   -3.2131    0.0000 H   0  0  0  0  0  0  0  0  0  0  0  0
    9.8829   -1.2500    0.0000 H   0  0  0  0  0  0  0  0  0  0  0  0
    7.8607   -3.3355    0.0000 H   0  0  0  0  0  0  0  0  0  0  0  0
    9.8406   -3.8182    0.0000 H   0  0  0  0  0  0  0  0  0  0  0  0
   10.5751   -3.3393    0.0000 H   0  0  0  0  0  0  0  0  0  0  0  0
   10.0963   -2.6048    0.0000 H   0  0  0  0  0  0  0  0  0  0  0  0
    7.9081   -4.2110    0.0000 H   0  0  0  0  0  0  0  0  0  0  0  0
    8.7836   -4.1636    0.0000 H   0  0  0  0  0  0  0  0  0  0  0  0
    3.0044   -2.7250    0.0000 H   0  0  0  0  0  0  0  0  0  0  0  0
    3.8015   -2.7250    0.0000 H   0  0  0  0  0  0  0  0  0  0  0  0
    7.4040    1.0600    0.0000 H   0  0  0  0  0  0  0  0  0  0  0  0
    2.0000   -2.0600    0.0000 H   0  0  0  0  0  0  0  0  0  0  0  0
    6.5380    2.5600    0.0000 H   0  0  0  0  0  0  0  0  0  0  0  0
    5.1350    0.1300    0.0000 H   0  0  0  0  0  0  0  0  0  0  0  0
    3.7320    0.9400    0.0000 H   0  0  0  0  0  0  0  0  0  0  0  0
    3.7320    2.5600    0.0000 H   0  0  0  0  0  0  0  0  0  0  0  0
  1 25  1  0  0  0  0
  2 21  1  0  0  0  0
  2 48  1  0  0  0  0
  3  9  1  0  0  0  0
  3 12  1  0  0  0  0
  3 13  1  0  0  0  0
  4 10  1  0  0  0  0
  4 11  1  0  0  0  0
  4 18  1  0  0  0  0
  5 11  2  0  0  0  0
  5 12  1  0  0  0  0
  6 12  2  0  0  0  0
  6 15  1  0  0  0  0
  7 14  1  0  0  0  0
  7 18  2  0  0  0  0
  8 15  1  0  0  0  0
  8 22  1  0  0  0  0
  8 47  1  0  0  0  0
  9 16  1  0  0  0  0
  9 17  1  0  0  0  0
  9 28  1  0  0  0  0
 10 19  1  0  0  0  0
 10 20  1  0  0  0  0
 10 29  1  0  0  0  0
 11 14  1  0  0  0  0
 13 21  1  0  0  0  0
 13 30  1  0  0  0  0
 13 31  1  0  0  0  0
 14 15  2  0  0  0  0
 16 32  1  0  0  0  0
 16 33  1  0  0  0  0
 16 34  1  0  0  0  0
 17 35  1  0  0  0  0
 17 36  1  0  0  0  0
 17 37  1  0  0  0  0
 18 38  1  0  0  0  0
 19 40  1  0  0  0  0
 19 41  1  0  0  0  0
 19 42  1  0  0  0  0
 20 39  1  0  0  0  0
 20 43  1  0  0  0  0
 20 44  1  0  0  0  0
 21 45  1  0  0  0  0
 21 46  1  0  0  0  0
 22 23  2  0  0  0  0
 22 24  1  0  0  0  0
 23 25  1  0  0  0  0
 23 49  1  0  0  0  0
 24 26  2  0  0  0  0
 24 50  1  0  0  0  0
 25 27  2  0  0  0  0
 26 27  1  0  0  0  0
 26 51  1  0  0  0  0
 27 52  1  0  0  0  0
M  END
> <PUBCHEM_COMPOUND_CID>
44350572

> <PUBCHEM_COMPOUND_CANONICALIZED>
1

> <PUBCHEM_CACTVS_COMPLEXITY>
468

> <PUBCHEM_CACTVS_HBOND_ACCEPTOR>
6

> <PUBCHEM_CACTVS_HBOND_DONOR>
2

> <PUBCHEM_CACTVS_ROTATABLE_BOND>
7

> <PUBCHEM_CACTVS_SUBSKEYS>
AAADceB7oAAEAAAAAAAAAAAAAAAAAWAAAAA8QAAAAAAAAFgB/AAAHgIQCAAACCrhlyY38L/MEgCgASZjZACCgC0xF6AJ2CAodpiKeGLB29GUJAhokALYyCcQAAAAAAAAAAIAAAAAAAAABAAAAAAAAAAAAA==

> <PUBCHEM_IUPAC_OPENEYE_NAME>
2-[[6-(3-chloroanilino)-9-isopropyl-purin-2-yl]-isopropyl-amino]ethanol

> <PUBCHEM_IUPAC_CAS_NAME>
2-[[6-(3-chloroanilino)-9-propan-2-yl-2-purinyl]-propan-2-ylamino]ethanol

> <PUBCHEM_IUPAC_NAME>
2-[[6-(3-chloroanilino)-9-propan-2-ylpurin-2-yl]-propan-2-ylamino]ethanol

> <PUBCHEM_IUPAC_SYSTEMATIC_NAME>
2-[[6-[(3-chlorophenyl)amino]-9-propan-2-yl-purin-2-yl]-propan-2-yl-amino]ethanol

> <PUBCHEM_IUPAC_TRADITIONAL_NAME>
2-[[6-(3-chloroanilino)-9-isopropyl-purin-2-yl]-isopropyl-amino]ethanol

> <PUBCHEM_IUPAC_INCHI>
InChI=1S/C19H25ClN6O/c1-12(2)25(8-9-27)19-23-17(22-15-7-5-6-14(20)10-15)16-18(24-19)26(11-21-16)13(3)4/h5-7,10-13,27H,8-9H2,1-4H3,(H,22,23,24)

> <PUBCHEM_IUPAC_INCHIKEY>
NQSWBYKEKMCWET-UHFFFAOYSA-N

> <PUBCHEM_XLOGP3_AA>
3.8

> <PUBCHEM_EXACT_MASS>
388.178

> <PUBCHEM_MOLECULAR_FORMULA>
C19H25ClN6O

> <PUBCHEM_MOLECULAR_WEIGHT>
388.9

> <PUBCHEM_OPENEYE_CAN_SMILES>
CC(C)N1C=NC2=C1N=C(N=C2NC3=CC(=CC=C3)Cl)N(CCO)C(C)C

> <PUBCHEM_OPENEYE_ISO_SMILES>
CC(C)N1C=NC2=C1N=C(N=C2NC3=CC(=CC=C3)Cl)N(CCO)C(C)C

> <PUBCHEM_CACTVS_TPSA>
79.1

> <PUBCHEM_MONOISOTOPIC_WEIGHT>
388.178

> <PUBCHEM_TOTAL_CHARGE>
0

> <PUBCHEM_HEAVY_ATOM_COUNT>
27

> <PUBCHEM_ATOM_DEF_STEREO_COUNT>
0

> <PUBCHEM_ATOM_UDEF_STEREO_COUNT>
0

> <PUBCHEM_BOND_DEF_STEREO_COUNT>
0

> <PUBCHEM_BOND_UDEF_STEREO_COUNT>
0

> <PUBCHEM_ISOTOPIC_ATOM_COUNT>
0

> <PUBCHEM_COMPONENT_COUNT>
1

> <PUBCHEM_CACTVS_TAUTO_COUNT>
3

> <PUBCHEM_COORDINATE_TYPE>
1
5
255

> <PUBCHEM_BONDANNOTATIONS>
11  14  8
14  15  8
22  23  8
22  24  8
23  25  8
24  26  8
25  27  8
26  27  8
4  11  8
4  18  8
5  11  8
5  12  8
6  12  8
6  15  8
7  14  8
7  18  8

$$$$
4566
  -OEChem-11021605012D

 50 53  0     0  0  0  0  0  0999 V2000
    3.4030   -0.9400    0.0000 S   0  0  0  0  0  0  0  0  0  0  0  0
    8.5991    0.0600    0.0000 O   0  0  0  0  0  0  0  0  0  0  0  0
    2.9030   -1.8060    0.0000 O   0  0  0  0  0  0  0  0  0  0  0  0
    3.9030   -0.0740    0.0000 O   0  0  0  0  0  0  0  0  0  0  0  0
    7.7331   -1.4400    0.0000 N   0  0  0  0  0  0  0  0  0  0  0  0
   10.4114   -1.1353    0.0000 N   0  0  0  0  0  0  0  0  0  0  0  0
    8.5991   -2.9400    0.0000 N   0  0  0  0  0  0  0  0  0  0  0  0
    6.8671   -2.9400    0.0000 N   0  0  0  0  0  0  0  0  0  0  0  0
   10.4114   -2.7447    0.0000 N   0  0  0  0  0  0  0  0  0  0  0  0
    2.5369   -0.4400    0.0000 N   0  0  0  0  0  0  0  0  0  0  0  0
    7.7331    1.5600    0.0000 C   0  0  0  0  0  0  0  0  0  0  0  0
    8.5991    2.0600    0.0000 C   0  0  0  0  0  0  0  0  0  0  0  0
    6.8671    2.0600    0.0000 C   0  0  0  0  0  0  0  0  0  0  0  0
    6.8671    3.0600    0.0000 C   0  0  0  0  0  0  0  0  0  0  0  0
    8.5991    3.0600    0.0000 C   0  0  0  0  0  0  0  0  0  0  0  0
    7.7331    3.5600    0.0000 C   0  0  0  0  0  0  0  0  0  0  0  0
    7.7331    0.5600    0.0000 C   0  0  0  0  0  0  0  0  0  0  0  0
    8.5991   -0.9400    0.0000 C   0  0  0  0  0  0  0  0  0  0  0  0
    9.4651   -1.4400    0.0000 C   0  0  0  0  0  0  0  0  0  0  0  0
    9.4651   -2.4400    0.0000 C   0  0  0  0  0  0  0  0  0  0  0  0
    7.7331   -2.4400    0.0000 C   0  0  0  0  0  0  0  0  0  0  0  0
   10.9950   -1.9400    0.0000 C   0  0  0  0  0  0  0  0  0  0  0  0
    6.0010   -2.4400    0.0000 C   0  0  0  0  0  0  0  0  0  0  0  0
    4.2690   -1.4400    0.0000 C   0  0  0  0  0  0  0  0  0  0  0  0
    6.0010   -1.4400    0.0000 C   0  0  0  0  0  0  0  0  0  0  0  0
    5.1350   -2.9400    0.0000 C   0  0  0  0  0  0  0  0  0  0  0  0
    5.1350   -0.9400    0.0000 C   0  0  0  0  0  0  0  0  0  0  0  0
    4.2690   -2.4400    0.0000 C   0  0  0  0  0  0  0  0  0  0  0  0
    8.2700    1.2500    0.0000 H   0  0  0  0  0  0  0  0  0  0  0  0
    6.2565    2.1677    0.0000 H   0  0  0  0  0  0  0  0  0  0  0  0
    6.6550    1.4774    0.0000 H   0  0  0  0  0  0  0  0  0  0  0  0
    8.8112    1.4774    0.0000 H   0  0  0  0  0  0  0  0  0  0  0  0
    9.2097    2.1677    0.0000 H   0  0  0  0  0  0  0  0  0  0  0  0
    6.6550    3.6426    0.0000 H   0  0  0  0  0  0  0  0  0  0  0  0
    6.2565    2.9523    0.0000 H   0  0  0  0  0  0  0  0  0  0  0  0
    9.2097    2.9523    0.0000 H   0  0  0  0  0  0  0  0  0  0  0  0
    8.8112    3.6426    0.0000 H   0  0  0  0  0  0  0  0  0  0  0  0
    8.1316    4.0350    0.0000 H   0  0  0  0  0  0  0  0  0  0  0  0
    7.3346    4.0350    0.0000 H   0  0  0  0  0  0  0  0  0  0  0  0
    7.1225    0.6677    0.0000 H   0  0  0  0  0  0  0  0  0  0  0  0
    7.5210   -0.0226    0.0000 H   0  0  0  0  0  0  0  0  0  0  0  0
   10.6040   -0.5459    0.0000 H   0  0  0  0  0  0  0  0  0  0  0  0
    6.8671   -3.5600    0.0000 H   0  0  0  0  0  0  0  0  0  0  0  0
   11.6150   -1.9400    0.0000 H   0  0  0  0  0  0  0  0  0  0  0  0
    6.5380   -1.1300    0.0000 H   0  0  0  0  0  0  0  0  0  0  0  0
    5.1350   -3.5600    0.0000 H   0  0  0  0  0  0  0  0  0  0  0  0
    5.1350   -0.3200    0.0000 H   0  0  0  0  0  0  0  0  0  0  0  0
    3.7320   -2.7500    0.0000 H   0  0  0  0  0  0  0  0  0  0  0  0
    2.0000   -0.7500    0.0000 H   0  0  0  0  0  0  0  0  0  0  0  0
    2.5369    0.1800    0.0000 H   0  0  0  0  0  0  0  0  0  0  0  0
  1  3  2  0  0  0  0
  1  4  2  0  0  0  0
  1 10  1  0  0  0  0
  1 24  1  0  0  0  0
  2 17  1  0  0  0  0
  2 18  1  0  0  0  0
  5 18  2  0  0  0  0
  5 21  1  0  0  0  0
  6 19  1  0  0  0  0
  6 22  1  0  0  0  0
  6 42  1  0  0  0  0
  7 20  1  0  0  0  0
  7 21  2  0  0  0  0
  8 21  1  0  0  0  0
  8 23  1  0  0  0  0
  8 43  1  0  0  0  0
  9 20  1  0  0  0  0
  9 22  2  0  0  0  0
 10 49  1  0  0  0  0
 10 50  1  0  0  0  0
 11 12  1  0  0  0  0
 11 13  1  0  0  0  0
 11 17  1  0  0  0  0
 11 29  1  0  0  0  0
 12 15  1  0  0  0  0
 12 32  1  0  0  0  0
 12 33  1  0  0  0  0
 13 14  1  0  0  0  0
 13 30  1  0  0  0  0
 13 31  1  0  0  0  0
 14 16  1  0  0  0  0
 14 34  1  0  0  0  0
 14 35  1  0  0  0  0
 15 16  1  0  0  0  0
 15 36  1  0  0  0  0
 15 37  1  0  0  0  0
 16 38  1  0  0  0  0
 16 39  1  0  0  0  0
 17 40  1  0  0  0  0
 17 41  1  0  0  0  0
 18 19  1  0  0  0  0
 19 20  2  0  0  0  0
 22 44  1  0  0  0  0
 23 25  2  0  0  0  0
 23 26  1  0  0  0  0
 24 27  2  0  0  0  0
 24 28  1  0  0  0  0
 25 27  1  0  0  0  0
 25 45  1  0  0  0  0
 26 28  2  0  0  0  0
 26 46  1  0  0  0  0
 27 47  1  0  0  0  0
 28 48  1  0  0  0  0
M  END
> <PUBCHEM_COMPOUND_CID>
4566

> <PUBCHEM_COMPOUND_CANONICALIZED>
1

> <PUBCHEM_CACTVS_COMPLEXITY>
601

> <PUBCHEM_CACTVS_HBOND_ACCEPTOR>
8

> <PUBCHEM_CACTVS_HBOND_DONOR>
3

> <PUBCHEM_CACTVS_ROTATABLE_BOND>
6

> <PUBCHEM_CACTVS_SUBSKEYS>
AAADceB7sABAAAAAAAAAAAAAAAAAAWAAAAA8YIAAAAAAAFgB/AAAHgQQQAAADQih1wY19b7JlAKgASZjZHTCiD2xcqAJ2bgtfJiObCLE+dmfLCjukApY6CeQwCAOAAQAAAAAAAAACAAAAAAAAAAAAAAAAA==

> <PUBCHEM_IUPAC_OPENEYE_NAME>
4-[[6-(cyclohexylmethoxy)-7H-purin-2-yl]amino]benzenesulfonamide

> <PUBCHEM_IUPAC_CAS_NAME>
4-[[6-(cyclohexylmethoxy)-7H-purin-2-yl]amino]benzenesulfonamide

> <PUBCHEM_IUPAC_NAME>
4-[[6-(cyclohexylmethoxy)-7H-purin-2-yl]amino]benzenesulfonamide

> <PUBCHEM_IUPAC_SYSTEMATIC_NAME>
4-[[6-(cyclohexylmethoxy)-7H-purin-2-yl]amino]benzenesulfonamide

> <PUBCHEM_IUPAC_TRADITIONAL_NAME>
4-[[6-(cyclohexylmethoxy)-7H-purin-2-yl]amino]benzenesulfonamide

> <PUBCHEM_IUPAC_INCHI>
InChI=1S/C18H22N6O3S/c19-28(25,26)14-8-6-13(7-9-14)22-18-23-16-15(20-11-21-16)17(24-18)27-10-12-4-2-1-3-5-12/h6-9,11-12H,1-5,10H2,(H2,19,25,26)(H2,20,21,22,23,24)

> <PUBCHEM_IUPAC_INCHIKEY>
OWXORKPNCHJYOF-UHFFFAOYSA-N

> <PUBCHEM_XLOGP3_AA>
3.2

> <PUBCHEM_EXACT_MASS>
402.147

> <PUBCHEM_MOLECULAR_FORMULA>
C18H22N6O3S

> <PUBCHEM_MOLECULAR_WEIGHT>
402.473

> <PUBCHEM_OPENEYE_CAN_SMILES>
C1CCC(CC1)COC2=NC(=NC3=C2NC=N3)NC4=CC=C(C=C4)S(=O)(=O)N

> <PUBCHEM_OPENEYE_ISO_SMILES>
C1CCC(CC1)COC2=NC(=NC3=C2NC=N3)NC4=CC=C(C=C4)S(=O)(=O)N

> <PUBCHEM_CACTVS_TPSA>
144

> <PUBCHEM_MONOISOTOPIC_WEIGHT>
402.147

> <PUBCHEM_TOTAL_CHARGE>
0

> <PUBCHEM_HEAVY_ATOM_COUNT>
28

> <PUBCHEM_ATOM_DEF_STEREO_COUNT>
0

> <PUBCHEM_ATOM_UDEF_STEREO_COUNT>
0

> <PUBCHEM_BOND_DEF_STEREO_COUNT>
0

> <PUBCHEM_BOND_UDEF_STEREO_COUNT>
0

> <PUBCHEM_ISOTOPIC_ATOM_COUNT>
0

> <PUBCHEM_COMPONENT_COUNT>
1

> <PUBCHEM_CACTVS_TAUTO_COUNT>
9

> <PUBCHEM_COORDINATE_TYPE>
1
5
255

> <PUBCHEM_BONDANNOTATIONS>
18  19  8
19  20  8
23  25  8
23  26  8
24  27  8
24  28  8
25  27  8
26  28  8
5  18  8
5  21  8
6  19  8
6  22  8
7  20  8
7  21  8
9  20  8
9  22  8

$$$$
64981
  -OEChem-11021605012D

 51 53  0     1  0  0  0  0  0999 V2000
    6.5468    2.7756    0.0000 O   0  0  0  0  0  0  0  0  0  0  0  0
    4.8255    3.2368    0.0000 O   0  0  0  0  0  0  0  0  0  0  0  0
    9.9740    0.9085    0.0000 O   0  0  0  0  0  0  0  0  0  0  0  0
    2.8660   -1.9268    0.0000 O   0  0  0  0  0  0  0  0  0  0  0  0
   10.3898   -1.0478    0.0000 O   0  0  0  0  0  0  0  0  0  0  0  0
    4.5981   -2.9268    0.0000 O   0  0  0  0  0  0  0  0  0  0  0  0
    6.3776    1.1664    0.0000 C   0  0  2  0  0  0  0  0  0  0  0  0
    5.4641    1.5732    0.0000 C   0  0  1  0  0  0  0  0  0  0  0  0
    7.0468    1.9096    0.0000 C   0  0  0  0  0  0  0  0  0  0  0  0
    6.5856    0.1883    0.0000 C   0  0  0  0  0  0  0  0  0  0  0  0
    4.5981    1.0732    0.0000 C   0  0  0  0  0  0  0  0  0  0  0  0
    5.5686    2.5677    0.0000 C   0  0  0  0  0  0  0  0  0  0  0  0
    7.5366   -0.1207    0.0000 C   0  0  0  0  0  0  0  0  0  0  0  0
    4.5981    0.0732    0.0000 C   0  0  0  0  0  0  0  0  0  0  0  0
    8.2798    0.5484    0.0000 C   0  0  0  0  0  0  0  0  0  0  0  0
    7.7445   -1.0989    0.0000 C   0  0  0  0  0  0  0  0  0  0  0  0
    3.7320   -0.4268    0.0000 C   0  0  0  0  0  0  0  0  0  0  0  0
    5.4641   -0.4268    0.0000 C   0  0  0  0  0  0  0  0  0  0  0  0
    9.2308    0.2394    0.0000 C   0  0  0  0  0  0  0  0  0  0  0  0
    8.6956   -1.4079    0.0000 C   0  0  0  0  0  0  0  0  0  0  0  0
    3.7320   -1.4268    0.0000 C   0  0  0  0  0  0  0  0  0  0  0  0
    5.4641   -1.4268    0.0000 C   0  0  0  0  0  0  0  0  0  0  0  0
    9.4387   -0.7388    0.0000 C   0  0  0  0  0  0  0  0  0  0  0  0
    4.5981   -1.9268    0.0000 C   0  0  0  0  0  0  0  0  0  0  0  0
   10.9250    0.5995    0.0000 C   0  0  0  0  0  0  0  0  0  0  0  0
    2.0000   -1.4268    0.0000 C   0  0  0  0  0  0  0  0  0  0  0  0
   10.5977   -2.0259    0.0000 C   0  0  0  0  0  0  0  0  0  0  0  0
    5.8958    0.7763    0.0000 H   0  0  0  0  0  0  0  0  0  0  0  0
    4.9441    1.9108    0.0000 H   0  0  0  0  0  0  0  0  0  0  0  0
    7.4616    1.4488    0.0000 H   0  0  0  0  0  0  0  0  0  0  0  0
    7.5484    2.2740    0.0000 H   0  0  0  0  0  0  0  0  0  0  0  0
    5.9659    0.1667    0.0000 H   0  0  0  0  0  0  0  0  0  0  0  0
    6.4993   -0.4257    0.0000 H   0  0  0  0  0  0  0  0  0  0  0  0
    4.3860    1.6558    0.0000 H   0  0  0  0  0  0  0  0  0  0  0  0
    3.9875    0.9655    0.0000 H   0  0  0  0  0  0  0  0  0  0  0  0
    8.1509    1.1548    0.0000 H   0  0  0  0  0  0  0  0  0  0  0  0
    7.2838   -1.5137    0.0000 H   0  0  0  0  0  0  0  0  0  0  0  0
    3.1951   -0.1168    0.0000 H   0  0  0  0  0  0  0  0  0  0  0  0
    6.0010   -0.1168    0.0000 H   0  0  0  0  0  0  0  0  0  0  0  0
    8.8245   -2.0143    0.0000 H   0  0  0  0  0  0  0  0  0  0  0  0
    6.0010   -1.7368    0.0000 H   0  0  0  0  0  0  0  0  0  0  0  0
    5.1350   -3.2368    0.0000 H   0  0  0  0  0  0  0  0  0  0  0  0
   10.7334    0.0098    0.0000 H   0  0  0  0  0  0  0  0  0  0  0  0
   11.5147    0.4079    0.0000 H   0  0  0  0  0  0  0  0  0  0  0  0
   11.1166    1.1892    0.0000 H   0  0  0  0  0  0  0  0  0  0  0  0
    2.3100   -0.8899    0.0000 H   0  0  0  0  0  0  0  0  0  0  0  0
    1.4631   -1.1168    0.0000 H   0  0  0  0  0  0  0  0  0  0  0  0
    1.6900   -1.9638    0.0000 H   0  0  0  0  0  0  0  0  0  0  0  0
    9.9912   -2.1548    0.0000 H   0  0  0  0  0  0  0  0  0  0  0  0
   10.7266   -2.6324    0.0000 H   0  0  0  0  0  0  0  0  0  0  0  0
   11.2041   -1.8970    0.0000 H   0  0  0  0  0  0  0  0  0  0  0  0
  1  9  1  0  0  0  0
  1 12  1  0  0  0  0
  2 12  2  0  0  0  0
  3 19  1  0  0  0  0
  3 25  1  0  0  0  0
  4 21  1  0  0  0  0
  4 26  1  0  0  0  0
  5 23  1  0  0  0  0
  5 27  1  0  0  0  0
  6 24  1  0  0  0  0
  6 42  1  0  0  0  0
  7  8  1  0  0  0  0
  7  9  1  0  0  0  0
  7 10  1  6  0  0  0
  7 28  1  0  0  0  0
  8 11  1  1  0  0  0
  8 12  1  0  0  0  0
  8 29  1  0  0  0  0
  9 30  1  0  0  0  0
  9 31  1  0  0  0  0
 10 13  1  0  0  0  0
 10 32  1  0  0  0  0
 10 33  1  0  0  0  0
 11 14  1  0  0  0  0
 11 34  1  0  0  0  0
 11 35  1  0  0  0  0
 13 15  2  0  0  0  0
 13 16  1  0  0  0  0
 14 17  2  0  0  0  0
 14 18  1  0  0  0  0
 15 19  1  0  0  0  0
 15 36  1  0  0  0  0
 16 20  2  0  0  0  0
 16 37  1  0  0  0  0
 17 21  1  0  0  0  0
 17 38  1  0  0  0  0
 18 22  2  0  0  0  0
 18 39  1  0  0  0  0
 19 23  2  0  0  0  0
 20 23  1  0  0  0  0
 20 40  1  0  0  0  0
 21 24  2  0  0  0  0
 22 24  1  0  0  0  0
 22 41  1  0  0  0  0
 25 43  1  0  0  0  0
 25 44  1  0  0  0  0
 25 45  1  0  0  0  0
 26 46  1  0  0  0  0
 26 47  1  0  0  0  0
 26 48  1  0  0  0  0
 27 49  1  0  0  0  0
 27 50  1  0  0  0  0
 27 51  1  0  0  0  0
M  END
> <PUBCHEM_COMPOUND_CID>
64981

> <PUBCHEM_COMPOUND_CANONICALIZED>
1

> <PUBCHEM_CACTVS_COMPLEXITY>
483

> <PUBCHEM_CACTVS_HBOND_ACCEPTOR>
6

> <PUBCHEM_CACTVS_HBOND_DONOR>
1

> <PUBCHEM_CACTVS_ROTATABLE_BOND>
7

> <PUBCHEM_CACTVS_SUBSKEYS>
AAADceB4OAAAAAAAAAAAAAAAAAAAASAAAAAwYAAAAAAAAAABQAAAGgAACAAADQSgmAIyDoAABgCIAiDSCAACCAAgIAAIiAEGiIgNJjKGMRqCcCMkwBELuAeKyPCOoAABAAAAQABAAAIAAACAAAAAAAAAAA==

> <PUBCHEM_IUPAC_OPENEYE_NAME>
(3R,4R)-4-[(3,4-dimethoxyphenyl)methyl]-3-[(4-hydroxy-3-methoxy-phenyl)methyl]tetrahydrofuran-2-one

> <PUBCHEM_IUPAC_CAS_NAME>
(3R,4R)-4-[(3,4-dimethoxyphenyl)methyl]-3-[(4-hydroxy-3-methoxyphenyl)methyl]-2-oxolanone

> <PUBCHEM_IUPAC_NAME>
(3R,4R)-4-[(3,4-dimethoxyphenyl)methyl]-3-[(4-hydroxy-3-methoxyphenyl)methyl]oxolan-2-one

> <PUBCHEM_IUPAC_SYSTEMATIC_NAME>
(3R,4R)-4-[(3,4-dimethoxyphenyl)methyl]-3-[(3-methoxy-4-oxidanyl-phenyl)methyl]oxolan-2-one

> <PUBCHEM_IUPAC_TRADITIONAL_NAME>
(3R,4R)-3-vanillyl-4-veratryl-tetrahydrofuran-2-one

> <PUBCHEM_IUPAC_INCHI>
InChI=1S/C21H24O6/c1-24-18-7-5-13(11-20(18)26-3)8-15-12-27-21(23)16(15)9-14-4-6-17(22)19(10-14)25-2/h4-7,10-11,15-16,22H,8-9,12H2,1-3H3/t15-,16+/m0/s1

> <PUBCHEM_IUPAC_INCHIKEY>
NQWVSMVXKMHKTF-JKSUJKDBSA-N

> <PUBCHEM_XLOGP3_AA>
3.6

> <PUBCHEM_EXACT_MASS>
372.157

> <PUBCHEM_MOLECULAR_FORMULA>
C21H24O6

> <PUBCHEM_MOLECULAR_WEIGHT>
372.417

> <PUBCHEM_OPENEYE_CAN_SMILES>
COC1=C(C=C(C=C1)CC2COC(=O)C2CC3=CC(=C(C=C3)O)OC)OC

> <PUBCHEM_OPENEYE_ISO_SMILES>
COC1=C(C=C(C=C1)C[C@H]2COC(=O)[C@@H]2CC3=CC(=C(C=C3)O)OC)OC

> <PUBCHEM_CACTVS_TPSA>
74.2

> <PUBCHEM_MONOISOTOPIC_WEIGHT>
372.157

> <PUBCHEM_TOTAL_CHARGE>
0

> <PUBCHEM_HEAVY_ATOM_COUNT>
27

> <PUBCHEM_ATOM_DEF_STEREO_COUNT>
2

> <PUBCHEM_ATOM_UDEF_STEREO_COUNT>
0

> <PUBCHEM_BOND_DEF_STEREO_COUNT>
0

> <PUBCHEM_BOND_UDEF_STEREO_COUNT>
0

> <PUBCHEM_ISOTOPIC_ATOM_COUNT>
0

> <PUBCHEM_COMPONENT_COUNT>
1

> <PUBCHEM_CACTVS_TAUTO_COUNT>
6

> <PUBCHEM_COORDINATE_TYPE>
1
5
255

> <PUBCHEM_BONDANNOTATIONS>
13  15  8
13  16  8
14  17  8
14  18  8
15  19  8
16  20  8
17  21  8
18  22  8
19  23  8
20  23  8
21  24  8
22  24  8
7  10  6
8  11  5

$$$$
12634029
  -OEChem-11021605012D

 29 31  0     0  0  0  0  0  0999 V2000
    5.5301   -2.1754    0.0000 O   0  0  0  0  0  0  0  0  0  0  0  0
    5.5301    1.8246    0.0000 O   0  0  0  0  0  0  0  0  0  0  0  0
    7.2785    1.8592    0.0000 O   0  0  0  0  0  0  0  0  0  0  0  0
    9.0602   -1.1995    0.0000 O   0  0  0  0  0  0  0  0  0  0  0  0
    4.6641   -0.6754    0.0000 C   0  0  0  0  0  0  0  0  0  0  0  0
    4.6641    0.3246    0.0000 C   0  0  0  0  0  0  0  0  0  0  0  0
    6.3961    0.3246    0.0000 C   0  0  0  0  0  0  0  0  0  0  0  0
    6.3961   -0.6754    0.0000 C   0  0  0  0  0  0  0  0  0  0  0  0
    5.5301   -1.1754    0.0000 C   0  0  0  0  0  0  0  0  0  0  0  0
    5.5301    0.8246    0.0000 C   0  0  0  0  0  0  0  0  0  0  0  0
    3.7702   -1.2100    0.0000 C   0  0  0  0  0  0  0  0  0  0  0  0
    3.7702    0.8593    0.0000 C   0  0  0  0  0  0  0  0  0  0  0  0
    7.2901    0.8593    0.0000 C   0  0  0  0  0  0  0  0  0  0  0  0
    2.8641   -0.6962    0.0000 C   0  0  0  0  0  0  0  0  0  0  0  0
    7.2901   -1.2100    0.0000 C   0  0  0  0  0  0  0  0  0  0  0  0
    2.8641    0.3454    0.0000 C   0  0  0  0  0  0  0  0  0  0  0  0
    8.1962   -0.6962    0.0000 C   0  0  0  0  0  0  0  0  0  0  0  0
    8.1962    0.3454    0.0000 C   0  0  0  0  0  0  0  0  0  0  0  0
    2.0000   -1.1995    0.0000 C   0  0  0  0  0  0  0  0  0  0  0  0
    3.7773   -1.8300    0.0000 H   0  0  0  0  0  0  0  0  0  0  0  0
    3.7773    1.4792    0.0000 H   0  0  0  0  0  0  0  0  0  0  0  0
    7.2829   -1.8300    0.0000 H   0  0  0  0  0  0  0  0  0  0  0  0
    2.3284    0.6575    0.0000 H   0  0  0  0  0  0  0  0  0  0  0  0
    8.7319    0.6575    0.0000 H   0  0  0  0  0  0  0  0  0  0  0  0
    1.6879   -0.6638    0.0000 H   0  0  0  0  0  0  0  0  0  0  0  0
    1.4643   -1.5116    0.0000 H   0  0  0  0  0  0  0  0  0  0  0  0
    2.3121   -1.7353    0.0000 H   0  0  0  0  0  0  0  0  0  0  0  0
    7.8118    2.1754    0.0000 H   0  0  0  0  0  0  0  0  0  0  0  0
    9.5984   -0.8916    0.0000 H   0  0  0  0  0  0  0  0  0  0  0  0
  1  9  2  0  0  0  0
  2 10  2  0  0  0  0
  3 13  1  0  0  0  0
  3 28  1  0  0  0  0
  4 17  1  0  0  0  0
  4 29  1  0  0  0  0
  5  6  2  0  0  0  0
  5  9  1  0  0  0  0
  5 11  1  0  0  0  0
  6 10  1  0  0  0  0
  6 12  1  0  0  0  0
  7  8  2  0  0  0  0
  7 10  1  0  0  0  0
  7 13  1  0  0  0  0
  8  9  1  0  0  0  0
  8 15  1  0  0  0  0
 11 14  2  0  0  0  0
 11 20  1  0  0  0  0
 12 16  2  0  0  0  0
 12 21  1  0  0  0  0
 13 18  2  0  0  0  0
 14 16  1  0  0  0  0
 14 19  1  0  0  0  0
 15 17  2  0  0  0  0
 15 22  1  0  0  0  0
 16 23  1  0  0  0  0
 17 18  1  0  0  0  0
 18 24  1  0  0  0  0
 19 25  1  0  0  0  0
 19 26  1  0  0  0  0
 19 27  1  0  0  0  0
M  END
> <PUBCHEM_COMPOUND_CID>
12634029

> <PUBCHEM_COMPOUND_CANONICALIZED>
1

> <PUBCHEM_CACTVS_COMPLEXITY>
405

> <PUBCHEM_CACTVS_HBOND_ACCEPTOR>
4

> <PUBCHEM_CACTVS_HBOND_DONOR>
2

> <PUBCHEM_CACTVS_ROTATABLE_BOND>
0

> <PUBCHEM_CACTVS_SUBSKEYS>
AAADccBwOAAAAAAAAAAAAAAAAAAAAAAAAAAwYMAAAAAAAADBQAAAGgAACAAADASAmAAyBoAAAgCIAqBSAAACAAAkIAAIiAEGCMgIJzaCFRKAcUAl4BUImYeL7PTO4AADCAAYAADAAAYQADAAAAAAAAAAAA==

> <PUBCHEM_IUPAC_OPENEYE_NAME>
1,3-dihydroxy-6-methyl-anthracene-9,10-dione

> <PUBCHEM_IUPAC_CAS_NAME>
1,3-dihydroxy-6-methylanthracene-9,10-dione

> <PUBCHEM_IUPAC_NAME>
1,3-dihydroxy-6-methylanthracene-9,10-dione

> <PUBCHEM_IUPAC_SYSTEMATIC_NAME>
6-methyl-1,3-bis(oxidanyl)anthracene-9,10-dione

> <PUBCHEM_IUPAC_TRADITIONAL_NAME>
1,3-dihydroxy-6-methyl-9,10-anthraquinone

> <PUBCHEM_IUPAC_INCHI>
InChI=1S/C15H10O4/c1-7-2-3-9-10(4-7)14(18)11-5-8(16)6-12(17)13(11)15(9)19/h2-6,16-17H,1H3

> <PUBCHEM_IUPAC_INCHIKEY>
PUHSTRUGLOAIJU-UHFFFAOYSA-N

> <PUBCHEM_XLOGP3_AA>
3.1

> <PUBCHEM_EXACT_MASS>
254.058

> <PUBCHEM_MOLECULAR_FORMULA>
C15H10O4

> <PUBCHEM_MOLECULAR_WEIGHT>
254.241

> <PUBCHEM_OPENEYE_CAN_SMILES>
CC1=CC2=C(C=C1)C(=O)C3=C(C=C(C=C3C2=O)O)O

> <PUBCHEM_OPENEYE_ISO_SMILES>
CC1=CC2=C(C=C1)C(=O)C3=C(C=C(C=C3C2=O)O)O

> <PUBCHEM_CACTVS_TPSA>
74.6

> <PUBCHEM_MONOISOTOPIC_WEIGHT>
254.058

> <PUBCHEM_TOTAL_CHARGE>
0

> <PUBCHEM_HEAVY_ATOM_COUNT>
19

> <PUBCHEM_ATOM_DEF_STEREO_COUNT>
0

> <PUBCHEM_ATOM_UDEF_STEREO_COUNT>
0

> <PUBCHEM_BOND_DEF_STEREO_COUNT>
0

> <PUBCHEM_BOND_UDEF_STEREO_COUNT>
0

> <PUBCHEM_ISOTOPIC_ATOM_COUNT>
0

> <PUBCHEM_COMPONENT_COUNT>
1

> <PUBCHEM_CACTVS_TAUTO_COUNT>
57

> <PUBCHEM_COORDINATE_TYPE>
1
5
255

> <PUBCHEM_BONDANNOTATIONS>
11  14  8
12  16  8
13  18  8
14  16  8
15  17  8
17  18  8
5  11  8
5  6  8
6  12  8
7  13  8
7  8  8
8  15  8

$$$$
5353919
  -OEChem-11021605012D

 29 31  0     0  0  0  0  0  0999 V2000
    2.0000   -0.9639    0.0000 I   0  0  0  0  0  0  0  0  0  0  0  0
    2.5623    0.8676    0.0000 Br  0  0  0  0  0  0  0  0  0  0  0  0
    5.1406    3.1810    0.0000 Br  0  0  0  0  0  0  0  0  0  0  0  0
    7.1279   -1.9639    0.0000 O   0  0  0  0  0  0  0  0  0  0  0  0
    3.1836    2.7686    0.0000 O   0  0  0  0  0  0  0  0  0  0  0  0
    5.5443   -2.7686    0.0000 N   0  0  0  0  0  0  0  0  0  0  0  0
    4.5981   -1.4639    0.0000 C   0  0  0  0  0  0  0  0  0  0  0  0
    5.5443   -1.1591    0.0000 C   0  0  0  0  0  0  0  0  0  0  0  0
    4.5981   -2.4639    0.0000 C   0  0  0  0  0  0  0  0  0  0  0  0
    6.1279   -1.9639    0.0000 C   0  0  0  0  0  0  0  0  0  0  0  0
    5.8550   -0.2086    0.0000 C   0  0  0  0  0  0  0  0  0  0  0  0
    3.7320   -0.9639    0.0000 C   0  0  0  0  0  0  0  0  0  0  0  0
    5.1871    0.5357    0.0000 C   0  0  0  0  0  0  0  0  0  0  0  0
    3.7320   -2.9639    0.0000 C   0  0  0  0  0  0  0  0  0  0  0  0
    2.8660   -1.4639    0.0000 C   0  0  0  0  0  0  0  0  0  0  0  0
    2.8660   -2.4639    0.0000 C   0  0  0  0  0  0  0  0  0  0  0  0
    5.4978    1.4862    0.0000 C   0  0  0  0  0  0  0  0  0  0  0  0
    4.2086    0.3295    0.0000 C   0  0  0  0  0  0  0  0  0  0  0  0
    3.5408    1.0738    0.0000 C   0  0  0  0  0  0  0  0  0  0  0  0
    4.8299    2.2305    0.0000 C   0  0  0  0  0  0  0  0  0  0  0  0
    3.8514    2.0243    0.0000 C   0  0  0  0  0  0  0  0  0  0  0  0
    5.7369   -3.3579    0.0000 H   0  0  0  0  0  0  0  0  0  0  0  0
    6.4616   -0.0808    0.0000 H   0  0  0  0  0  0  0  0  0  0  0  0
    3.7320   -0.3439    0.0000 H   0  0  0  0  0  0  0  0  0  0  0  0
    3.7320   -3.5839    0.0000 H   0  0  0  0  0  0  0  0  0  0  0  0
    2.3291   -2.7739    0.0000 H   0  0  0  0  0  0  0  0  0  0  0  0
    6.1044    1.6141    0.0000 H   0  0  0  0  0  0  0  0  0  0  0  0
    4.0160   -0.2599    0.0000 H   0  0  0  0  0  0  0  0  0  0  0  0
    3.3762    3.3579    0.0000 H   0  0  0  0  0  0  0  0  0  0  0  0
  1 15  1  0  0  0  0
  2 19  1  0  0  0  0
  3 20  1  0  0  0  0
  4 10  2  0  0  0  0
  5 21  1  0  0  0  0
  5 29  1  0  0  0  0
  6  9  1  0  0  0  0
  6 10  1  0  0  0  0
  6 22  1  0  0  0  0
  7  8  1  0  0  0  0
  7  9  2  0  0  0  0
  7 12  1  0  0  0  0
  8 10  1  0  0  0  0
  8 11  2  0  0  0  0
  9 14  1  0  0  0  0
 11 13  1  0  0  0  0
 11 23  1  0  0  0  0
 12 15  2  0  0  0  0
 12 24  1  0  0  0  0
 13 17  2  0  0  0  0
 13 18  1  0  0  0  0
 14 16  2  0  0  0  0
 14 25  1  0  0  0  0
 15 16  1  0  0  0  0
 16 26  1  0  0  0  0
 17 20  1  0  0  0  0
 17 27  1  0  0  0  0
 18 19  2  0  0  0  0
 18 28  1  0  0  0  0
 19 21  1  0  0  0  0
 20 21  2  0  0  0  0
M  END
> <PUBCHEM_COMPOUND_CID>
5353919

> <PUBCHEM_COMPOUND_CANONICALIZED>
1

> <PUBCHEM_CACTVS_COMPLEXITY>
447

> <PUBCHEM_CACTVS_HBOND_ACCEPTOR>
2

> <PUBCHEM_CACTVS_HBOND_DONOR>
2

> <PUBCHEM_CACTVS_ROTATABLE_BOND>
1

> <PUBCHEM_CACTVS_SUBSKEYS>
AAADccByMAAAGgAAAAAAAAAAAAAAAWAAAAAwYAAAAAAAAFgBQAAAHgBwCAABrAyDmAAwxoLAAgCIAiVSUACCAAAhIgQIiAEEbOgIJjLClZOEcAhk1BHI25ecyICOIAAAEAAiBABAAAAgAEQIAAAAAAAAAA==

> <PUBCHEM_IUPAC_OPENEYE_NAME>
(3E)-3-[(3,5-dibromo-4-hydroxy-phenyl)methylene]-5-iodo-indolin-2-one

> <PUBCHEM_IUPAC_CAS_NAME>
(3E)-3-[(3,5-dibromo-4-hydroxyphenyl)methylidene]-5-iodo-1H-indol-2-one

> <PUBCHEM_IUPAC_NAME>
(3E)-3-[(3,5-dibromo-4-hydroxyphenyl)methylidene]-5-iodo-1H-indol-2-one

> <PUBCHEM_IUPAC_SYSTEMATIC_NAME>
(3E)-3-[[3,5-bis(bromanyl)-4-oxidanyl-phenyl]methylidene]-5-iodanyl-1H-indol-2-one

> <PUBCHEM_IUPAC_TRADITIONAL_NAME>
(3E)-3-(3,5-dibromo-4-hydroxy-benzylidene)-5-iodo-oxindole

> <PUBCHEM_IUPAC_INCHI>
InChI=1S/C15H8Br2INO2/c16-11-4-7(5-12(17)14(11)20)3-10-9-6-8(18)1-2-13(9)19-15(10)21/h1-6,20H,(H,19,21)/b10-3+

> <PUBCHEM_IUPAC_INCHIKEY>
LMXYVLFTZRPNRV-XCVCLJGOSA-N

> <PUBCHEM_XLOGP3_AA>
4.6

> <PUBCHEM_EXACT_MASS>
520.795

> <PUBCHEM_MOLECULAR_FORMULA>
C15H8Br2INO2

> <PUBCHEM_MOLECULAR_WEIGHT>
520.946

> <PUBCHEM_OPENEYE_CAN_SMILES>
C1=CC2=C(C=C1I)C(=CC3=CC(=C(C(=C3)Br)O)Br)C(=O)N2

> <PUBCHEM_OPENEYE_ISO_SMILES>
C1=CC2=C(C=C1I)/C(=C\C3=CC(=C(C(=C3)Br)O)Br)/C(=O)N2

> <PUBCHEM_CACTVS_TPSA>
49.3

> <PUBCHEM_MONOISOTOPIC_WEIGHT>
518.797

> <PUBCHEM_TOTAL_CHARGE>
0

> <PUBCHEM_HEAVY_ATOM_COUNT>
21

> <PUBCHEM_ATOM_DEF_STEREO_COUNT>
0

> <PUBCHEM_ATOM_UDEF_STEREO_COUNT>
0

> <PUBCHEM_BOND_DEF_STEREO_COUNT>
1

> <PUBCHEM_BOND_UDEF_STEREO_COUNT>
0

> <PUBCHEM_ISOTOPIC_ATOM_COUNT>
0

> <PUBCHEM_COMPONENT_COUNT>
1

> <PUBCHEM_CACTVS_TAUTO_COUNT>
11

> <PUBCHEM_COORDINATE_TYPE>
1
5
255

> <PUBCHEM_BONDANNOTATIONS>
12  15  8
13  17  8
13  18  8
14  16  8
15  16  8
17  20  8
18  19  8
19  21  8
20  21  8
7  12  8
7  9  8
9  14  8

$$$$
97297
  -OEChem-11021605012D

 33 35  0     1  0  0  0  0  0999 V2000
    4.9889    2.9927    0.0000 I   0  0  0  0  0  0  0  0  0  0  0  0
    5.9405   -0.8252    0.0000 O   0  0  0  0  0  0  0  0  0  0  0  0
    3.4026   -1.3296    0.0000 O   0  0  0  0  0  0  0  0  0  0  0  0
    4.6844   -3.0874    0.0000 O   0  0  0  0  0  0  0  0  0  0  0  0
    7.6651   -2.0032    0.0000 O   0  0  0  0  0  0  0  0  0  0  0  0
    4.6783    0.4327    0.0000 N   0  0  0  0  0  0  0  0  0  0  0  0
    2.8660    0.2375    0.0000 N   0  0  0  0  0  0  0  0  0  0  0  0
    2.0000    1.7374    0.0000 N   0  0  0  0  0  0  0  0  0  0  0  0
    2.8660    3.2374    0.0000 N   0  0  0  0  0  0  0  0  0  0  0  0
    4.9889   -0.5178    0.0000 C   0  0  1  0  0  0  0  0  0  0  0  0
    4.4026   -1.3278    0.0000 C   0  0  1  0  0  0  0  0  0  0  0  0
    4.9917   -2.1358    0.0000 C   0  0  1  0  0  0  0  0  0  0  0  0
    5.9422   -1.8252    0.0000 C   0  0  1  0  0  0  0  0  0  0  0  0
    6.7523   -2.4116    0.0000 C   0  0  0  0  0  0  0  0  0  0  0  0
    3.7320    0.7375    0.0000 C   0  0  0  0  0  0  0  0  0  0  0  0
    5.2619    1.2374    0.0000 C   0  0  0  0  0  0  0  0  0  0  0  0
    3.7320    1.7374    0.0000 C   0  0  0  0  0  0  0  0  0  0  0  0
    4.6783    2.0422    0.0000 C   0  0  0  0  0  0  0  0  0  0  0  0
    2.8660    2.2374    0.0000 C   0  0  0  0  0  0  0  0  0  0  0  0
    2.0000    0.7375    0.0000 C   0  0  0  0  0  0  0  0  0  0  0  0
    5.4266   -0.0786    0.0000 H   0  0  0  0  0  0  0  0  0  0  0  0
    4.1220   -1.8807    0.0000 H   0  0  0  0  0  0  0  0  0  0  0  0
    5.4309   -2.5735    0.0000 H   0  0  0  0  0  0  0  0  0  0  0  0
    6.4942   -1.5427    0.0000 H   0  0  0  0  0  0  0  0  0  0  0  0
    6.3070   -2.8430    0.0000 H   0  0  0  0  0  0  0  0  0  0  0  0
    7.0999   -2.9250    0.0000 H   0  0  0  0  0  0  0  0  0  0  0  0
    5.8819    1.2374    0.0000 H   0  0  0  0  0  0  0  0  0  0  0  0
    3.0935   -1.8670    0.0000 H   0  0  0  0  0  0  0  0  0  0  0  0
    5.1000   -3.5474    0.0000 H   0  0  0  0  0  0  0  0  0  0  0  0
    8.1674   -2.3668    0.0000 H   0  0  0  0  0  0  0  0  0  0  0  0
    1.4631    0.4275    0.0000 H   0  0  0  0  0  0  0  0  0  0  0  0
    2.3291    3.5474    0.0000 H   0  0  0  0  0  0  0  0  0  0  0  0
    3.4030    3.5474    0.0000 H   0  0  0  0  0  0  0  0  0  0  0  0
  1 18  1  0  0  0  0
  2 10  1  0  0  0  0
  2 13  1  0  0  0  0
 11  3  1  1  0  0  0
  3 28  1  0  0  0  0
 12  4  1  1  0  0  0
  4 29  1  0  0  0  0
  5 14  1  0  0  0  0
  5 30  1  0  0  0  0
 10  6  1  6  0  0  0
  6 15  1  0  0  0  0
  6 16  1  0  0  0  0
  7 15  2  0  0  0  0
  7 20  1  0  0  0  0
  8 19  1  0  0  0  0
  8 20  2  0  0  0  0
  9 19  1  0  0  0  0
  9 32  1  0  0  0  0
  9 33  1  0  0  0  0
 10 11  1  0  0  0  0
 10 21  1  0  0  0  0
 11 12  1  0  0  0  0
 11 22  1  0  0  0  0
 12 13  1  0  0  0  0
 12 23  1  0  0  0  0
 13 14  1  6  0  0  0
 13 24  1  0  0  0  0
 14 25  1  0  0  0  0
 14 26  1  0  0  0  0
 15 17  1  0  0  0  0
 16 18  2  0  0  0  0
 16 27  1  0  0  0  0
 17 18  1  0  0  0  0
 17 19  2  0  0  0  0
 20 31  1  0  0  0  0
M  END
> <PUBCHEM_COMPOUND_CID>
97297

> <PUBCHEM_COMPOUND_CANONICALIZED>
1

> <PUBCHEM_CACTVS_COMPLEXITY>
365

> <PUBCHEM_CACTVS_HBOND_ACCEPTOR>
7

> <PUBCHEM_CACTVS_HBOND_DONOR>
4

> <PUBCHEM_CACTVS_ROTATABLE_BOND>
2

> <PUBCHEM_CACTVS_SUBSKEYS>
AAADccBzuAAAAgAAAAAAAAAAAAAAAWJAAAAsAAAAAAAAAFgB+AAAHgAwCAAADBTjmwYtsN9MFgCgAhJnZACCgCkxAKAB2CAoRJiLOEJAyMEORAhPAALTQCDwMAIIAAAAAAAAAAAAAAAAAAAAAAAAAAAAAA==

> <PUBCHEM_IUPAC_OPENEYE_NAME>
(2R,3R,4S,5R)-2-(4-amino-5-iodo-pyrrolo[2,3-d]pyrimidin-7-yl)-5-(hydroxymethyl)tetrahydrofuran-3,4-diol

> <PUBCHEM_IUPAC_CAS_NAME>
(2R,3R,4S,5R)-2-(4-amino-5-iodo-7-pyrrolo[2,3-d]pyrimidinyl)-5-(hydroxymethyl)oxolane-3,4-diol

> <PUBCHEM_IUPAC_NAME>
(2R,3R,4S,5R)-2-(4-amino-5-iodopyrrolo[2,3-d]pyrimidin-7-yl)-5-(hydroxymethyl)oxolane-3,4-diol

> <PUBCHEM_IUPAC_SYSTEMATIC_NAME>
(2R,3R,4S,5R)-2-(4-azanyl-5-iodanyl-pyrrolo[2,3-d]pyrimidin-7-yl)-5-(hydroxymethyl)oxolane-3,4-diol

> <PUBCHEM_IUPAC_TRADITIONAL_NAME>
(2R,3R,4S,5R)-2-(4-amino-5-iodo-pyrrolo[2,3-d]pyrimidin-7-yl)-5-methylol-tetrahydrofuran-3,4-diol

> <PUBCHEM_IUPAC_INCHI>
InChI=1S/C11H13IN4O4/c12-4-1-16(10-6(4)9(13)14-3-15-10)11-8(19)7(18)5(2-17)20-11/h1,3,5,7-8,11,17-19H,2H2,(H2,13,14,15)/t5-,7-,8-,11-/m1/s1

> <PUBCHEM_IUPAC_INCHIKEY>
WHSIXKUPQCKWBY-IOSLPCCCSA-N

> <PUBCHEM_XLOGP3_AA>
-0.7

> <PUBCHEM_EXACT_MASS>
391.998

> <PUBCHEM_MOLECULAR_FORMULA>
C11H13IN4O4

> <PUBCHEM_MOLECULAR_WEIGHT>
392.153

> <PUBCHEM_OPENEYE_CAN_SMILES>
C1=C(C2=C(N1C3C(C(C(O3)CO)O)O)N=CN=C2N)I

> <PUBCHEM_OPENEYE_ISO_SMILES>
C1=C(C2=C(N1[C@H]3[C@@H]([C@@H]([C@H](O3)CO)O)O)N=CN=C2N)I

> <PUBCHEM_CACTVS_TPSA>
127

> <PUBCHEM_MONOISOTOPIC_WEIGHT>
391.998

> <PUBCHEM_TOTAL_CHARGE>
0

> <PUBCHEM_HEAVY_ATOM_COUNT>
20

> <PUBCHEM_ATOM_DEF_STEREO_COUNT>
4

> <PUBCHEM_ATOM_UDEF_STEREO_COUNT>
0

> <PUBCHEM_BOND_DEF_STEREO_COUNT>
0

> <PUBCHEM_BOND_UDEF_STEREO_COUNT>
0

> <PUBCHEM_ISOTOPIC_ATOM_COUNT>
0

> <PUBCHEM_COMPONENT_COUNT>
1

> <PUBCHEM_CACTVS_TAUTO_COUNT>
4

> <PUBCHEM_COORDINATE_TYPE>
1
5
255

> <PUBCHEM_BONDANNOTATIONS>
13  14  6
15  17  8
16  18  8
17  18  8
17  19  8
11  3  5
12  4  5
10  6  6
6  15  8
6  16  8
7  15  8
7  20  8
8  19  8
8  20  8

$$$$
5714572
  -OEChem-11021605012D

 25 27  0     0  0  0  0  0  0999 V2000
    6.2619   -1.0089    0.0000 O   0  0  0  0  0  0  0  0  0  0  0  0
    4.6783   -1.8136    0.0000 N   0  0  0  0  0  0  0  0  0  0  0  0
    6.3758    1.8654    0.0000 N   0  0  0  0  0  0  0  0  0  0  0  0
    7.5763    0.7807    0.0000 N   0  0  0  0  0  0  0  0  0  0  0  0
    3.7320   -0.5089    0.0000 C   0  0  0  0  0  0  0  0  0  0  0  0
    4.6783   -0.2041    0.0000 C   0  0  0  0  0  0  0  0  0  0  0  0
    3.7320   -1.5089    0.0000 C   0  0  0  0  0  0  0  0  0  0  0  0
    5.2619   -1.0089    0.0000 C   0  0  0  0  0  0  0  0  0  0  0  0
    4.9889    0.7464    0.0000 C   0  0  0  0  0  0  0  0  0  0  0  0
    2.8660   -0.0089    0.0000 C   0  0  0  0  0  0  0  0  0  0  0  0
    2.8660   -2.0089    0.0000 C   0  0  0  0  0  0  0  0  0  0  0  0
    5.9674    0.9526    0.0000 C   0  0  0  0  0  0  0  0  0  0  0  0
    2.0000   -0.5089    0.0000 C   0  0  0  0  0  0  0  0  0  0  0  0
    2.0000   -1.5089    0.0000 C   0  0  0  0  0  0  0  0  0  0  0  0
    6.7094    0.2822    0.0000 C   0  0  0  0  0  0  0  0  0  0  0  0
    7.3701    1.7592    0.0000 C   0  0  0  0  0  0  0  0  0  0  0  0
    4.8709   -2.4029    0.0000 H   0  0  0  0  0  0  0  0  0  0  0  0
    4.5749    1.2079    0.0000 H   0  0  0  0  0  0  0  0  0  0  0  0
    2.8660    0.6111    0.0000 H   0  0  0  0  0  0  0  0  0  0  0  0
    2.8660   -2.6289    0.0000 H   0  0  0  0  0  0  0  0  0  0  0  0
    1.4631   -0.1989    0.0000 H   0  0  0  0  0  0  0  0  0  0  0  0
    1.4631   -1.8189    0.0000 H   0  0  0  0  0  0  0  0  0  0  0  0
    6.0667    2.4029    0.0000 H   0  0  0  0  0  0  0  0  0  0  0  0
    6.6436   -0.3343    0.0000 H   0  0  0  0  0  0  0  0  0  0  0  0
    7.7858    2.2192    0.0000 H   0  0  0  0  0  0  0  0  0  0  0  0
  1  8  2  0  0  0  0
  2  7  1  0  0  0  0
  2  8  1  0  0  0  0
  2 17  1  0  0  0  0
  3 12  1  0  0  0  0
  3 16  1  0  0  0  0
  3 23  1  0  0  0  0
  4 15  1  0  0  0  0
  4 16  2  0  0  0  0
  5  6  1  0  0  0  0
  5  7  1  0  0  0  0
  5 10  2  0  0  0  0
  6  8  1  0  0  0  0
  6  9  2  0  0  0  0
  7 11  2  0  0  0  0
  9 12  1  0  0  0  0
  9 18  1  0  0  0  0
 10 13  1  0  0  0  0
 10 19  1  0  0  0  0
 11 14  1  0  0  0  0
 11 20  1  0  0  0  0
 12 15  2  0  0  0  0
 13 14  2  0  0  0  0
 13 21  1  0  0  0  0
 14 22  1  0  0  0  0
 15 24  1  0  0  0  0
 16 25  1  0  0  0  0
M  END
> <PUBCHEM_COMPOUND_CID>
5714572

> <PUBCHEM_COMPOUND_CANONICALIZED>
1

> <PUBCHEM_CACTVS_COMPLEXITY>
326

> <PUBCHEM_CACTVS_HBOND_ACCEPTOR>
2

> <PUBCHEM_CACTVS_HBOND_DONOR>
2

> <PUBCHEM_CACTVS_ROTATABLE_BOND>
1

> <PUBCHEM_CACTVS_SUBSKEYS>
AAADccBzIAAAAAAAAAAAAAAAAAAAAWLAAAAwAAAAAAAAAFgBwAAAHgAQAAAADAjBngQ90JbJkACoAzV3dACCgC2xEqAJ2YE4dNiIaDLAnZGUIAholALIyacciICOAAAAAAACAAAAAAAAAAQAAAAAAAAAAA==

> <PUBCHEM_IUPAC_OPENEYE_NAME>
(3Z)-3-(1H-imidazol-5-ylmethylene)indolin-2-one

> <PUBCHEM_IUPAC_CAS_NAME>
(3Z)-3-(1H-imidazol-5-ylmethylidene)-1H-indol-2-one

> <PUBCHEM_IUPAC_NAME>
(3Z)-3-(1H-imidazol-5-ylmethylidene)-1H-indol-2-one

> <PUBCHEM_IUPAC_SYSTEMATIC_NAME>
(3Z)-3-(1H-imidazol-5-ylmethylidene)-1H-indol-2-one

> <PUBCHEM_IUPAC_TRADITIONAL_NAME>
(3Z)-3-(1H-imidazol-5-ylmethylene)oxindole

> <PUBCHEM_IUPAC_INCHI>
InChI=1S/C12H9N3O/c16-12-10(5-8-6-13-7-14-8)9-3-1-2-4-11(9)15-12/h1-7H,(H,13,14)(H,15,16)/b10-5-

> <PUBCHEM_IUPAC_INCHIKEY>
VEEGZPWAAPPXRB-YHYXMXQVSA-N

> <PUBCHEM_XLOGP3_AA>
1.1

> <PUBCHEM_EXACT_MASS>
211.075

> <PUBCHEM_MOLECULAR_FORMULA>
C12H9N3O

> <PUBCHEM_MOLECULAR_WEIGHT>
211.224

> <PUBCHEM_OPENEYE_CAN_SMILES>
C1=CC=C2C(=C1)C(=CC3=CN=CN3)C(=O)N2

> <PUBCHEM_OPENEYE_ISO_SMILES>
C1=CC=C2C(=C1)/C(=C/C3=CN=CN3)/C(=O)N2

> <PUBCHEM_CACTVS_TPSA>
57.8

> <PUBCHEM_MONOISOTOPIC_WEIGHT>
211.075

> <PUBCHEM_TOTAL_CHARGE>
0

> <PUBCHEM_HEAVY_ATOM_COUNT>
16

> <PUBCHEM_ATOM_DEF_STEREO_COUNT>
0

> <PUBCHEM_ATOM_UDEF_STEREO_COUNT>
0

> <PUBCHEM_BOND_DEF_STEREO_COUNT>
1

> <PUBCHEM_BOND_UDEF_STEREO_COUNT>
0

> <PUBCHEM_ISOTOPIC_ATOM_COUNT>
0

> <PUBCHEM_COMPONENT_COUNT>
1

> <PUBCHEM_CACTVS_TAUTO_COUNT>
7

> <PUBCHEM_COORDINATE_TYPE>
1
5
255

> <PUBCHEM_BONDANNOTATIONS>
10  13  8
11  14  8
12  15  8
13  14  8
3  12  8
3  16  8
4  15  8
4  16  8
5  10  8
5  7  8
7  11  8

$$$$
11628205
  -OEChem-11021605012D

 65 68  0     0  0  0  0  0  0999 V2000
   11.5237    2.2841    0.0000 S   0  0  0  0  0  0  0  0  0  0  0  0
    1.4030    5.5999    0.0000 S   0  0  0  0  0  0  0  0  0  0  0  0
   11.0157    6.8758    0.0000 O   0  0  0  0  0  0  0  0  0  0  0  0
    8.9515    9.7272    0.0000 O   0  0  0  0  0  0  0  0  0  0  0  0
    2.2690    6.0999    0.0000 O   0  0  0  0  0  0  0  0  0  0  0  0
    0.9030    6.4659    0.0000 O   0  0  0  0  0  0  0  0  0  0  0  0
    1.9030    4.7338    0.0000 O   0  0  0  0  0  0  0  0  0  0  0  0
    8.9454    4.5976    0.0000 N   0  0  0  0  0  0  0  0  0  0  0  0
    6.1390    7.4720    0.0000 N   0  0  0  0  0  0  0  0  0  0  0  0
   10.2094    8.4650    0.0000 N   0  0  0  0  0  0  0  0  0  0  0  0
   12.8129    1.1274    0.0000 N   0  0  0  0  0  0  0  0  0  0  0  0
   11.1666    0.5893    0.0000 N   0  0  0  0  0  0  0  0  0  0  0  0
    8.9454    6.2071    0.0000 C   0  0  0  0  0  0  0  0  0  0  0  0
    7.9992    5.9024    0.0000 C   0  0  0  0  0  0  0  0  0  0  0  0
    9.2561    7.1576    0.0000 C   0  0  0  0  0  0  0  0  0  0  0  0
    7.9992    4.9024    0.0000 C   0  0  0  0  0  0  0  0  0  0  0  0
    8.6697    7.9676    0.0000 C   0  0  0  0  0  0  0  0  0  0  0  0
    9.5290    5.4024    0.0000 C   0  0  0  0  0  0  0  0  0  0  0  0
    9.2561    3.6471    0.0000 C   0  0  0  0  0  0  0  0  0  0  0  0
    7.6697    7.9694    0.0000 C   0  0  0  0  0  0  0  0  0  0  0  0
    7.0875    8.7751    0.0000 C   0  0  0  0  0  0  0  0  0  0  0  0
    6.1364    8.4661    0.0000 C   0  0  0  0  0  0  0  0  0  0  0  0
   10.2346    3.4409    0.0000 C   0  0  0  0  0  0  0  0  0  0  0  0
   10.2077    7.4650    0.0000 C   0  0  0  0  0  0  0  0  0  0  0  0
    7.0847    7.1656    0.0000 C   0  0  0  0  0  0  0  0  0  0  0  0
    9.2589    8.7756    0.0000 C   0  0  0  0  0  0  0  0  0  0  0  0
    7.1332    6.4024    0.0000 C   0  0  0  0  0  0  0  0  0  0  0  0
    7.1332    4.4024    0.0000 C   0  0  0  0  0  0  0  0  0  0  0  0
    7.2954    9.7533    0.0000 C   0  0  0  0  0  0  0  0  0  0  0  0
    6.2671    5.9024    0.0000 C   0  0  0  0  0  0  0  0  0  0  0  0
    6.2671    4.9024    0.0000 C   0  0  0  0  0  0  0  0  0  0  0  0
   10.5452    2.4904    0.0000 C   0  0  0  0  0  0  0  0  0  0  0  0
    5.3933    9.1352    0.0000 C   0  0  0  0  0  0  0  0  0  0  0  0
    5.3310    6.8828    0.0000 C   0  0  0  0  0  0  0  0  0  0  0  0
    6.5522   10.4224    0.0000 C   0  0  0  0  0  0  0  0  0  0  0  0
    5.6012   10.1134    0.0000 C   0  0  0  0  0  0  0  0  0  0  0  0
   11.8344    1.3336    0.0000 C   0  0  0  0  0  0  0  0  0  0  0  0
    0.5369    5.0999    0.0000 C   0  0  0  0  0  0  0  0  0  0  0  0
   10.1490    5.4024    0.0000 H   0  0  0  0  0  0  0  0  0  0  0  0
    8.6422    3.5598    0.0000 H   0  0  0  0  0  0  0  0  0  0  0  0
    9.2355    3.0274    0.0000 H   0  0  0  0  0  0  0  0  0  0  0  0
   10.8484    3.5282    0.0000 H   0  0  0  0  0  0  0  0  0  0  0  0
   10.2551    4.0605    0.0000 H   0  0  0  0  0  0  0  0  0  0  0  0
    7.2763    6.5760    0.0000 H   0  0  0  0  0  0  0  0  0  0  0  0
    7.1332    7.0224    0.0000 H   0  0  0  0  0  0  0  0  0  0  0  0
    7.1332    3.7824    0.0000 H   0  0  0  0  0  0  0  0  0  0  0  0
   10.7116    8.8285    0.0000 H   0  0  0  0  0  0  0  0  0  0  0  0
    7.8850    9.9448    0.0000 H   0  0  0  0  0  0  0  0  0  0  0  0
    5.7302    6.2124    0.0000 H   0  0  0  0  0  0  0  0  0  0  0  0
    5.7302    4.5924    0.0000 H   0  0  0  0  0  0  0  0  0  0  0  0
    9.9314    2.4030    0.0000 H   0  0  0  0  0  0  0  0  0  0  0  0
   10.5247    1.8707    0.0000 H   0  0  0  0  0  0  0  0  0  0  0  0
    4.8036    8.9436    0.0000 H   0  0  0  0  0  0  0  0  0  0  0  0
    4.9657    7.3838    0.0000 H   0  0  0  0  0  0  0  0  0  0  0  0
    4.8300    6.5175    0.0000 H   0  0  0  0  0  0  0  0  0  0  0  0
    5.6963    6.3819    0.0000 H   0  0  0  0  0  0  0  0  0  0  0  0
    6.6811   11.0288    0.0000 H   0  0  0  0  0  0  0  0  0  0  0  0
    5.1404   10.5282    0.0000 H   0  0  0  0  0  0  0  0  0  0  0  0
   13.0055    0.5381    0.0000 H   0  0  0  0  0  0  0  0  0  0  0  0
   13.2270    1.5889    0.0000 H   0  0  0  0  0  0  0  0  0  0  0  0
   11.3592    0.0000    0.0000 H   0  0  0  0  0  0  0  0  0  0  0  0
    0.2269    5.6368    0.0000 H   0  0  0  0  0  0  0  0  0  0  0  0
    0.0000    4.7899    0.0000 H   0  0  0  0  0  0  0  0  0  0  0  0
    0.8469    4.5629    0.0000 H   0  0  0  0  0  0  0  0  0  0  0  0
    2.8059    5.7899    0.0000 H   0  0  0  0  0  0  0  0  0  0  0  0
  1 32  1  0  0  0  0
  1 37  1  0  0  0  0
  2  5  1  0  0  0  0
  2  6  2  0  0  0  0
  2  7  2  0  0  0  0
  2 38  1  0  0  0  0
  3 24  2  0  0  0  0
  4 26  2  0  0  0  0
  5 65  1  0  0  0  0
  8 16  1  0  0  0  0
  8 18  1  0  0  0  0
  8 19  1  0  0  0  0
  9 22  1  0  0  0  0
  9 25  1  0  0  0  0
  9 34  1  0  0  0  0
 10 24  1  0  0  0  0
 10 26  1  0  0  0  0
 10 47  1  0  0  0  0
 11 37  1  0  0  0  0
 11 59  1  0  0  0  0
 11 60  1  0  0  0  0
 12 37  2  0  0  0  0
 12 61  1  0  0  0  0
 13 14  1  0  0  0  0
 13 15  1  0  0  0  0
 13 18  2  0  0  0  0
 14 16  1  0  0  0  0
 14 27  2  0  0  0  0
 15 17  2  0  0  0  0
 15 24  1  0  0  0  0
 16 28  2  0  0  0  0
 17 20  1  0  0  0  0
 17 26  1  0  0  0  0
 18 39  1  0  0  0  0
 19 23  1  0  0  0  0
 19 40  1  0  0  0  0
 19 41  1  0  0  0  0
 20 21  1  0  0  0  0
 20 25  2  0  0  0  0
 21 22  1  0  0  0  0
 21 29  2  0  0  0  0
 22 33  2  0  0  0  0
 23 32  1  0  0  0  0
 23 42  1  0  0  0  0
 23 43  1  0  0  0  0
 25 44  1  0  0  0  0
 27 30  1  0  0  0  0
 27 45  1  0  0  0  0
 28 31  1  0  0  0  0
 28 46  1  0  0  0  0
 29 35  1  0  0  0  0
 29 48  1  0  0  0  0
 30 31  2  0  0  0  0
 30 49  1  0  0  0  0
 31 50  1  0  0  0  0
 32 51  1  0  0  0  0
 32 52  1  0  0  0  0
 33 36  1  0  0  0  0
 33 53  1  0  0  0  0
 34 54  1  0  0  0  0
 34 55  1  0  0  0  0
 34 56  1  0  0  0  0
 35 36  2  0  0  0  0
 35 57  1  0  0  0  0
 36 58  1  0  0  0  0
 38 62  1  0  0  0  0
 38 63  1  0  0  0  0
 38 64  1  0  0  0  0
M  END
> <PUBCHEM_COMPOUND_CID>
11628205

> <PUBCHEM_COMPOUND_CANONICALIZED>
1

> <PUBCHEM_CACTVS_COMPLEXITY>
937

> <PUBCHEM_CACTVS_HBOND_ACCEPTOR>
7

> <PUBCHEM_CACTVS_HBOND_DONOR>
4

> <PUBCHEM_CACTVS_ROTATABLE_BOND>
7

> <PUBCHEM_CACTVS_SUBSKEYS>
AAADceB7uABgAAAAAAAAAAAAAAAAAWLEAAAwYAAAAAAAAFgB/gAAHgQQCAAADAjF3gS/wPPMEIqoAzV3dHCCgiDxAjAI2CE4ZNgIIPLglZGEIAhghCDIyQccicCegAAAAAACAAAAAAAAAAQAAAAAAAAAAA==

> <PUBCHEM_IUPAC_OPENEYE_NAME>
methanesulfonic acid;2-[3-[3-[4-(1-methylindol-3-yl)-2,5-dioxo-pyrrol-3-yl]indol-1-yl]propyl]isothiourea

> <PUBCHEM_IUPAC_CAS_NAME>
carbamimidothioic acid 3-[3-[4-(1-methyl-3-indolyl)-2,5-dioxo-3-pyrrolyl]-1-indolyl]propyl ester;methanesulfonic acid

> <PUBCHEM_IUPAC_NAME>
methanesulfonic acid;3-[3-[4-(1-methylindol-3-yl)-2,5-dioxopyrrol-3-yl]indol-1-yl]propyl carbamimidothioate

> <PUBCHEM_IUPAC_SYSTEMATIC_NAME>
methanesulfonic acid;3-[3-[4-(1-methylindol-3-yl)-2,5-bis(oxidanylidene)pyrrol-3-yl]indol-1-yl]propyl carbamimidothioate

> <PUBCHEM_IUPAC_TRADITIONAL_NAME>
2-[3-[3-[2,5-diketo-4-(1-methylindol-3-yl)-3-pyrrolin-3-yl]indol-1-yl]propyl]isothiourea;mesylic acid

> <PUBCHEM_IUPAC_INCHI>
InChI=1S/C25H23N5O2S.CH4O3S/c1-29-13-17(15-7-2-4-9-19(15)29)21-22(24(32)28-23(21)31)18-14-30(11-6-12-33-25(26)27)20-10-5-3-8-16(18)20;1-5(2,3)4/h2-5,7-10,13-14H,6,11-12H2,1H3,(H3,26,27)(H,28,31,32);1H3,(H,2,3,4)

> <PUBCHEM_IUPAC_INCHIKEY>
SAWVGDJBSPLRRB-UHFFFAOYSA-N

> <PUBCHEM_EXACT_MASS>
553.145

> <PUBCHEM_MOLECULAR_FORMULA>
C26H27N5O5S2

> <PUBCHEM_MOLECULAR_WEIGHT>
553.652

> <PUBCHEM_OPENEYE_CAN_SMILES>
CN1C=C(C2=CC=CC=C21)C3=C(C(=O)NC3=O)C4=CN(C5=CC=CC=C54)CCCSC(=N)N.CS(=O)(=O)O

> <PUBCHEM_OPENEYE_ISO_SMILES>
CN1C=C(C2=CC=CC=C21)C3=C(C(=O)NC3=O)C4=CN(C5=CC=CC=C54)CCCSC(=N)N.CS(=O)(=O)O

> <PUBCHEM_CACTVS_TPSA>
194

> <PUBCHEM_MONOISOTOPIC_WEIGHT>
553.145

> <PUBCHEM_TOTAL_CHARGE>
0

> <PUBCHEM_HEAVY_ATOM_COUNT>
38

> <PUBCHEM_ATOM_DEF_STEREO_COUNT>
0

> <PUBCHEM_ATOM_UDEF_STEREO_COUNT>
0

> <PUBCHEM_BOND_DEF_STEREO_COUNT>
0

> <PUBCHEM_BOND_UDEF_STEREO_COUNT>
0

> <PUBCHEM_ISOTOPIC_ATOM_COUNT>
0

> <PUBCHEM_COMPONENT_COUNT>
2

> <PUBCHEM_CACTVS_TAUTO_COUNT>
3

> <PUBCHEM_COORDINATE_TYPE>
1
5
255

> <PUBCHEM_BONDANNOTATIONS>
13  14  8
13  18  8
14  16  8
14  27  8
16  28  8
20  21  8
20  25  8
21  22  8
21  29  8
22  33  8
27  30  8
28  31  8
29  35  8
30  31  8
33  36  8
35  36  8
8  16  8
8  18  8
9  22  8
9  25  8

$$$$
44450679
  -OEChem-11021605012D

 41 43  0     1  0  0  0  0  0999 V2000
    5.8076    3.9188    0.0000 S   0  0  0  0  0  0  0  0  0  0  0  0
    2.6387   -4.5243    0.0000 F   0  0  0  0  0  0  0  0  0  0  0  0
    5.4413   -2.4881    0.0000 F   0  0  0  0  0  0  0  0  0  0  0  0
    2.4577   -2.8017    0.0000 O   0  0  0  0  0  0  0  0  0  0  0  0
    6.8076    3.9188    0.0000 O   0  0  0  0  0  0  0  0  0  0  0  0
    4.8076    3.9188    0.0000 O   0  0  0  0  0  0  0  0  0  0  0  0
    3.8590   -1.7836    0.0000 N   0  0  0  0  0  0  0  0  0  0  0  0
    4.8371   -1.5757    0.0000 N   0  0  0  0  0  0  0  0  0  0  0  0
    5.8076   -0.0812    0.0000 N   0  0  0  0  0  0  0  0  0  0  0  0
    4.0281   -0.1745    0.0000 N   0  0  0  0  0  0  0  0  0  0  0  0
    2.3644   -0.8131    0.0000 N   0  0  0  0  0  0  0  0  0  0  0  0
    5.8076    4.9188    0.0000 N   0  0  0  0  0  0  0  0  0  0  0  0
    3.4522   -2.6972    0.0000 C   0  0  3  0  0  0  0  0  0  0  0  0
    4.0400   -3.5062    0.0000 C   0  0  0  0  0  0  0  0  0  0  0  0
    3.3590   -0.9176    0.0000 C   0  0  0  0  0  0  0  0  0  0  0  0
    4.9416   -0.5812    0.0000 C   0  0  0  0  0  0  0  0  0  0  0  0
    5.8076    0.9188    0.0000 C   0  0  0  0  0  0  0  0  0  0  0  0
    3.6333   -4.4198    0.0000 C   0  0  0  0  0  0  0  0  0  0  0  0
    5.0345   -3.4017    0.0000 C   0  0  0  0  0  0  0  0  0  0  0  0
    5.8076    2.9188    0.0000 C   0  0  0  0  0  0  0  0  0  0  0  0
    6.6737    1.4188    0.0000 C   0  0  0  0  0  0  0  0  0  0  0  0
    4.9416    1.4188    0.0000 C   0  0  0  0  0  0  0  0  0  0  0  0
    6.6737    2.4188    0.0000 C   0  0  0  0  0  0  0  0  0  0  0  0
    4.9416    2.4188    0.0000 C   0  0  0  0  0  0  0  0  0  0  0  0
    4.2210   -5.2288    0.0000 C   0  0  0  0  0  0  0  0  0  0  0  0
    5.6223   -4.2107    0.0000 C   0  0  0  0  0  0  0  0  0  0  0  0
    5.2156   -5.1242    0.0000 C   0  0  0  0  0  0  0  0  0  0  0  0
    3.2000   -3.2636    0.0000 H   0  0  0  0  0  0  0  0  0  0  0  0
    6.3446   -0.3912    0.0000 H   0  0  0  0  0  0  0  0  0  0  0  0
    7.2106    1.1088    0.0000 H   0  0  0  0  0  0  0  0  0  0  0  0
    4.4047    1.1088    0.0000 H   0  0  0  0  0  0  0  0  0  0  0  0
    7.2106    2.7288    0.0000 H   0  0  0  0  0  0  0  0  0  0  0  0
    4.4047    2.7288    0.0000 H   0  0  0  0  0  0  0  0  0  0  0  0
    3.9689   -5.7952    0.0000 H   0  0  0  0  0  0  0  0  0  0  0  0
    6.2389   -4.1459    0.0000 H   0  0  0  0  0  0  0  0  0  0  0  0
    2.2055   -3.3681    0.0000 H   0  0  0  0  0  0  0  0  0  0  0  0
    5.5800   -5.6258    0.0000 H   0  0  0  0  0  0  0  0  0  0  0  0
    2.1122   -0.2467    0.0000 H   0  0  0  0  0  0  0  0  0  0  0  0
    2.0000   -1.3147    0.0000 H   0  0  0  0  0  0  0  0  0  0  0  0
    6.3446    5.2288    0.0000 H   0  0  0  0  0  0  0  0  0  0  0  0
    5.2707    5.2288    0.0000 H   0  0  0  0  0  0  0  0  0  0  0  0
  1  5  2  0  0  0  0
  1  6  2  0  0  0  0
  1 12  1  0  0  0  0
  1 20  1  0  0  0  0
  2 18  1  0  0  0  0
  3 19  1  0  0  0  0
  4 13  1  0  0  0  0
  4 36  1  0  0  0  0
  7  8  1  0  0  0  0
  7 13  1  0  0  0  0
  7 15  1  0  0  0  0
  8 16  2  0  0  0  0
  9 16  1  0  0  0  0
  9 17  1  0  0  0  0
  9 29  1  0  0  0  0
 10 15  2  0  0  0  0
 10 16  1  0  0  0  0
 11 15  1  0  0  0  0
 11 38  1  0  0  0  0
 11 39  1  0  0  0  0
 12 40  1  0  0  0  0
 12 41  1  0  0  0  0
 13 14  1  0  0  0  0
 13 28  1  0  0  0  0
 14 18  2  0  0  0  0
 14 19  1  0  0  0  0
 17 21  2  0  0  0  0
 17 22  1  0  0  0  0
 18 25  1  0  0  0  0
 19 26  2  0  0  0  0
 20 23  2  0  0  0  0
 20 24  1  0  0  0  0
 21 23  1  0  0  0  0
 21 30  1  0  0  0  0
 22 24  2  0  0  0  0
 22 31  1  0  0  0  0
 23 32  1  0  0  0  0
 24 33  1  0  0  0  0
 25 27  2  0  0  0  0
 25 34  1  0  0  0  0
 26 27  1  0  0  0  0
 26 35  1  0  0  0  0
 27 37  1  0  0  0  0
M  END
> <PUBCHEM_COMPOUND_CID>
44450679

> <PUBCHEM_COMPOUND_CANONICALIZED>
1

> <PUBCHEM_CACTVS_COMPLEXITY>
591

> <PUBCHEM_CACTVS_HBOND_ACCEPTOR>
10

> <PUBCHEM_CACTVS_HBOND_DONOR>
4

> <PUBCHEM_CACTVS_ROTATABLE_BOND>
5

> <PUBCHEM_CACTVS_SUBSKEYS>
AAADccBzsYBAAAAAAAAAAAAAAAAAAWAAAAAwYAAAAAAAAAAB0AAAHwQYSAAADAjh2A4x0YbIEgKiAiRCZHDSABshgoAdyBgIbIiIPiLAmZGEcAh80ANI2CeQwCAOAAQAAAAAAAAACAAAAAAAAAAAAAAAAA==

> <PUBCHEM_IUPAC_OPENEYE_NAME>
4-[[5-amino-1-[(2,6-difluorophenyl)-hydroxy-methyl]-1,2,4-triazol-3-yl]amino]benzenesulfonamide

> <PUBCHEM_IUPAC_CAS_NAME>
4-[[5-amino-1-[(2,6-difluorophenyl)-hydroxymethyl]-1,2,4-triazol-3-yl]amino]benzenesulfonamide

> <PUBCHEM_IUPAC_NAME>
4-[[5-amino-1-[(2,6-difluorophenyl)-hydroxymethyl]-1,2,4-triazol-3-yl]amino]benzenesulfonamide

> <PUBCHEM_IUPAC_SYSTEMATIC_NAME>
4-[[5-azanyl-1-[[2,6-bis(fluoranyl)phenyl]-oxidanyl-methyl]-1,2,4-triazol-3-yl]amino]benzenesulfonamide

> <PUBCHEM_IUPAC_TRADITIONAL_NAME>
4-[[5-amino-1-[(2,6-difluorophenyl)-hydroxy-methyl]-1,2,4-triazol-3-yl]amino]benzenesulfonamide

> <PUBCHEM_IUPAC_INCHI>
InChI=1S/C15H14F2N6O3S/c16-10-2-1-3-11(17)12(10)13(24)23-14(18)21-15(22-23)20-8-4-6-9(7-5-8)27(19,25)26/h1-7,13,24H,(H2,19,25,26)(H3,18,20,21,22)

> <PUBCHEM_IUPAC_INCHIKEY>
JYXXUTRJQLQXSJ-UHFFFAOYSA-N

> <PUBCHEM_XLOGP3_AA>
1.9

> <PUBCHEM_EXACT_MASS>
396.082

> <PUBCHEM_MOLECULAR_FORMULA>
C15H14F2N6O3S

> <PUBCHEM_MOLECULAR_WEIGHT>
396.373

> <PUBCHEM_OPENEYE_CAN_SMILES>
C1=CC(=C(C(=C1)F)C(N2C(=NC(=N2)NC3=CC=C(C=C3)S(=O)(=O)N)N)O)F

> <PUBCHEM_OPENEYE_ISO_SMILES>
C1=CC(=C(C(=C1)F)C(N2C(=NC(=N2)NC3=CC=C(C=C3)S(=O)(=O)N)N)O)F

> <PUBCHEM_CACTVS_TPSA>
158

> <PUBCHEM_MONOISOTOPIC_WEIGHT>
396.082

> <PUBCHEM_TOTAL_CHARGE>
0

> <PUBCHEM_HEAVY_ATOM_COUNT>
27

> <PUBCHEM_ATOM_DEF_STEREO_COUNT>
0

> <PUBCHEM_ATOM_UDEF_STEREO_COUNT>
1

> <PUBCHEM_BOND_DEF_STEREO_COUNT>
0

> <PUBCHEM_BOND_UDEF_STEREO_COUNT>
0

> <PUBCHEM_ISOTOPIC_ATOM_COUNT>
0

> <PUBCHEM_COMPONENT_COUNT>
1

> <PUBCHEM_CACTVS_TAUTO_COUNT>
5

> <PUBCHEM_COORDINATE_TYPE>
1
5
255

> <PUBCHEM_BONDANNOTATIONS>
10  15  8
10  16  8
14  18  8
14  19  8
17  21  8
17  22  8
18  25  8
19  26  8
20  23  8
20  24  8
21  23  8
22  24  8
25  27  8
26  27  8
13  4  3
7  15  8
7  8  8
8  16  8

$$$$
5288032
  -OEChem-11021605012D

 29 31  0     0  0  0  0  0  0999 V2000
    3.6781   -3.4296    0.0000 O   0  0  0  0  0  0  0  0  0  0  0  0
    2.0000    1.4223    0.0000 O   0  0  0  0  0  0  0  0  0  0  0  0
    2.4747   -2.2382    0.0000 N   0  0  0  0  0  0  0  0  0  0  0  0
    5.1772   -2.1285    0.0000 N   0  0  0  0  0  0  0  0  0  0  0  0
    4.5748    1.1647    0.0000 N   0  0  0  0  0  0  0  0  0  0  0  0
    3.5041    2.3779    0.0000 N   0  0  0  0  0  0  0  0  0  0  0  0
    5.2299    2.8219    0.0000 N   0  0  0  0  0  0  0  0  0  0  0  0
    3.4395   -0.2089    0.0000 C   0  0  0  0  0  0  0  0  0  0  0  0
    2.4657   -0.4363    0.0000 C   0  0  0  0  0  0  0  0  0  0  0  0
    4.2245   -0.8285    0.0000 C   0  0  0  0  0  0  0  0  0  0  0  0
    2.0364   -1.3394    0.0000 C   0  0  0  0  0  0  0  0  0  0  0  0
    4.2295   -1.8285    0.0000 C   0  0  0  0  0  0  0  0  0  0  0  0
    3.6572    0.7671    0.0000 C   0  0  0  0  0  0  0  0  0  0  0  0
    3.4508   -2.4558    0.0000 C   0  0  0  0  0  0  0  0  0  0  0  0
    5.1692   -0.5190    0.0000 C   0  0  0  0  0  0  0  0  0  0  0  0
    5.7568   -1.3208    0.0000 C   0  0  0  0  0  0  0  0  0  0  0  0
    2.9955    1.5169    0.0000 C   0  0  0  0  0  0  0  0  0  0  0  0
    4.4802    2.1603    0.0000 C   0  0  0  0  0  0  0  0  0  0  0  0
    2.4626    0.1837    0.0000 H   0  0  0  0  0  0  0  0  0  0  0  0
    1.8606   -0.3013    0.0000 H   0  0  0  0  0  0  0  0  0  0  0  0
    1.5497   -0.9552    0.0000 H   0  0  0  0  0  0  0  0  0  0  0  0
    1.5536   -1.7284    0.0000 H   0  0  0  0  0  0  0  0  0  0  0  0
    2.0906   -2.7248    0.0000 H   0  0  0  0  0  0  0  0  0  0  0  0
    5.3588    0.0712    0.0000 H   0  0  0  0  0  0  0  0  0  0  0  0
    5.3727   -2.7168    0.0000 H   0  0  0  0  0  0  0  0  0  0  0  0
    6.3768   -1.3178    0.0000 H   0  0  0  0  0  0  0  0  0  0  0  0
    5.1086    0.8494    0.0000 H   0  0  0  0  0  0  0  0  0  0  0  0
    5.1071    3.4296    0.0000 H   0  0  0  0  0  0  0  0  0  0  0  0
    5.8177    2.6245    0.0000 H   0  0  0  0  0  0  0  0  0  0  0  0
  1 14  2  0  0  0  0
  2 17  2  0  0  0  0
  3 11  1  0  0  0  0
  3 14  1  0  0  0  0
  3 23  1  0  0  0  0
  4 12  1  0  0  0  0
  4 16  1  0  0  0  0
  4 25  1  0  0  0  0
  5 13  1  0  0  0  0
  5 18  1  0  0  0  0
  5 27  1  0  0  0  0
  6 17  1  0  0  0  0
  6 18  2  0  0  0  0
  7 18  1  0  0  0  0
  7 28  1  0  0  0  0
  7 29  1  0  0  0  0
  8  9  1  0  0  0  0
  8 10  1  0  0  0  0
  8 13  2  0  0  0  0
  9 11  1  0  0  0  0
  9 19  1  0  0  0  0
  9 20  1  0  0  0  0
 10 12  2  0  0  0  0
 10 15  1  0  0  0  0
 11 21  1  0  0  0  0
 11 22  1  0  0  0  0
 12 14  1  0  0  0  0
 13 17  1  0  0  0  0
 15 16  2  0  0  0  0
 15 24  1  0  0  0  0
 16 26  1  0  0  0  0
M  END
> <PUBCHEM_COMPOUND_CID>
5288032

> <PUBCHEM_COMPOUND_CANONICALIZED>
1

> <PUBCHEM_CACTVS_COMPLEXITY>
482

> <PUBCHEM_CACTVS_HBOND_ACCEPTOR>
2

> <PUBCHEM_CACTVS_HBOND_DONOR>
4

> <PUBCHEM_CACTVS_ROTATABLE_BOND>
0

> <PUBCHEM_CACTVS_SUBSKEYS>
AAADccBzsAAAAAAAAAAAAAAAAAAAAWIAAAAAAAAABYAAAACxgAAAHgAQAAAADAjBngQ9gJLJkACoAzV3dACCgCE3AiAJ2aG4ZNiIYPLAnLGUAQhglgLIyQcYCQAOAAAAAAAAAAAAAAAAAAAAAAAAAAAAAA==

> <PUBCHEM_IUPAC_OPENEYE_NAME>
(4Z)-4-(2-amino-4-oxo-1H-imidazol-5-ylidene)-1,5,6,7-tetrahydropyrrolo[2,3-c]azepin-8-one

> <PUBCHEM_IUPAC_CAS_NAME>
(4Z)-4-(2-amino-4-oxo-1H-imidazol-5-ylidene)-1,5,6,7-tetrahydropyrrolo[2,3-c]azepin-8-one

> <PUBCHEM_IUPAC_NAME>
(4Z)-4-(2-amino-4-oxo-1H-imidazol-5-ylidene)-1,5,6,7-tetrahydropyrrolo[2,3-c]azepin-8-one

> <PUBCHEM_IUPAC_SYSTEMATIC_NAME>
(4Z)-4-(2-azanyl-4-oxidanylidene-1H-imidazol-5-ylidene)-1,5,6,7-tetrahydropyrrolo[2,3-c]azepin-8-one

> <PUBCHEM_IUPAC_TRADITIONAL_NAME>
(4Z)-4-(2-amino-5-keto-2-imidazolin-4-ylidene)-1,5,6,7-tetrahydropyrrol[2,3-c]azepin-8-one

> <PUBCHEM_IUPAC_INCHI>
InChI=1S/C11H11N5O2/c12-11-15-8(10(18)16-11)6-2-4-14-9(17)7-5(6)1-3-13-7/h1,3,13H,2,4H2,(H,14,17)(H3,12,15,16,18)/b8-6-

> <PUBCHEM_IUPAC_INCHIKEY>
JYRJOQGKGMHTOO-VURMDHGXSA-N

> <PUBCHEM_XLOGP3_AA>
-1.2

> <PUBCHEM_EXACT_MASS>
245.091

> <PUBCHEM_MOLECULAR_FORMULA>
C11H11N5O2

> <PUBCHEM_MOLECULAR_WEIGHT>
245.242

> <PUBCHEM_OPENEYE_CAN_SMILES>
C1CNC(=O)C2=C(C1=C3C(=O)N=C(N3)N)C=CN2

> <PUBCHEM_OPENEYE_ISO_SMILES>
C\1CNC(=O)C2=C(/C1=C\3/C(=O)N=C(N3)N)C=CN2

> <PUBCHEM_CACTVS_TPSA>
112

> <PUBCHEM_MONOISOTOPIC_WEIGHT>
245.091

> <PUBCHEM_TOTAL_CHARGE>
0

> <PUBCHEM_HEAVY_ATOM_COUNT>
18

> <PUBCHEM_ATOM_DEF_STEREO_COUNT>
0

> <PUBCHEM_ATOM_UDEF_STEREO_COUNT>
0

> <PUBCHEM_BOND_DEF_STEREO_COUNT>
1

> <PUBCHEM_BOND_UDEF_STEREO_COUNT>
0

> <PUBCHEM_ISOTOPIC_ATOM_COUNT>
0

> <PUBCHEM_COMPONENT_COUNT>
1

> <PUBCHEM_CACTVS_TAUTO_COUNT>
151

> <PUBCHEM_COORDINATE_TYPE>
1
5
255

> <PUBCHEM_BONDANNOTATIONS>
10  12  8
10  15  8
15  16  8
4  12  8
4  16  8

$$$$
5354033
  -OEChem-11021605012D

 42 43  0     0  0  0  0  0  0999 V2000
    5.1350   -1.7500    0.0000 S   0  0  0  0  0  0  0  0  0  0  0  0
    4.2690    1.7500    0.0000 S   0  0  0  0  0  0  0  0  0  0  0  0
    3.4030   -2.7500    0.0000 N   0  0  0  0  0  0  0  0  0  0  0  0
    2.5369    2.7500    0.0000 N   0  0  0  0  0  0  0  0  0  0  0  0
    6.8671   -1.7500    0.0000 N   0  0  0  0  0  0  0  0  0  0  0  0
    6.0010    1.7500    0.0000 N   0  0  0  0  0  0  0  0  0  0  0  0
    7.7331    0.7500    0.0000 N   0  0  0  0  0  0  0  0  0  0  0  0
    3.4030   -0.7500    0.0000 N   0  0  0  0  0  0  0  0  0  0  0  0
    5.1350   -2.7500    0.0000 C   0  0  0  0  0  0  0  0  0  0  0  0
    4.2690    2.7500    0.0000 C   0  0  0  0  0  0  0  0  0  0  0  0
    4.2690   -3.2500    0.0000 C   0  0  0  0  0  0  0  0  0  0  0  0
    3.4030    3.2500    0.0000 C   0  0  0  0  0  0  0  0  0  0  0  0
    6.0010   -3.2500    0.0000 C   0  0  0  0  0  0  0  0  0  0  0  0
    5.1350    3.2500    0.0000 C   0  0  0  0  0  0  0  0  0  0  0  0
    4.2690   -4.2500    0.0000 C   0  0  0  0  0  0  0  0  0  0  0  0
    3.4030    4.2500    0.0000 C   0  0  0  0  0  0  0  0  0  0  0  0
    6.0010   -1.2500    0.0000 C   0  0  0  0  0  0  0  0  0  0  0  0
    5.1350    1.2500    0.0000 C   0  0  0  0  0  0  0  0  0  0  0  0
    6.0010   -0.2500    0.0000 C   0  0  0  0  0  0  0  0  0  0  0  0
    5.1350    0.2500    0.0000 C   0  0  0  0  0  0  0  0  0  0  0  0
    6.0010   -4.2500    0.0000 C   0  0  0  0  0  0  0  0  0  0  0  0
    5.1350    4.2500    0.0000 C   0  0  0  0  0  0  0  0  0  0  0  0
    5.1350   -4.7500    0.0000 C   0  0  0  0  0  0  0  0  0  0  0  0
    4.2690    4.7500    0.0000 C   0  0  0  0  0  0  0  0  0  0  0  0
    6.8671    0.2500    0.0000 C   0  0  0  0  0  0  0  0  0  0  0  0
    4.2690   -0.2500    0.0000 C   0  0  0  0  0  0  0  0  0  0  0  0
    6.5380   -2.9400    0.0000 H   0  0  0  0  0  0  0  0  0  0  0  0
    5.6720    2.9400    0.0000 H   0  0  0  0  0  0  0  0  0  0  0  0
    3.7320   -4.5600    0.0000 H   0  0  0  0  0  0  0  0  0  0  0  0
    2.8660    4.5600    0.0000 H   0  0  0  0  0  0  0  0  0  0  0  0
    6.5380   -4.5600    0.0000 H   0  0  0  0  0  0  0  0  0  0  0  0
    5.6720    4.5600    0.0000 H   0  0  0  0  0  0  0  0  0  0  0  0
    5.1350   -5.3700    0.0000 H   0  0  0  0  0  0  0  0  0  0  0  0
    4.2690    5.3700    0.0000 H   0  0  0  0  0  0  0  0  0  0  0  0
    2.8660   -3.0600    0.0000 H   0  0  0  0  0  0  0  0  0  0  0  0
    3.4030   -2.1300    0.0000 H   0  0  0  0  0  0  0  0  0  0  0  0
    2.0000    3.0600    0.0000 H   0  0  0  0  0  0  0  0  0  0  0  0
    2.5369    2.1300    0.0000 H   0  0  0  0  0  0  0  0  0  0  0  0
    7.4040   -1.4400    0.0000 H   0  0  0  0  0  0  0  0  0  0  0  0
    6.8671   -2.3700    0.0000 H   0  0  0  0  0  0  0  0  0  0  0  0
    6.0010    2.3700    0.0000 H   0  0  0  0  0  0  0  0  0  0  0  0
    6.5380    1.4400    0.0000 H   0  0  0  0  0  0  0  0  0  0  0  0
  1  9  1  0  0  0  0
  1 17  1  0  0  0  0
  2 10  1  0  0  0  0
  2 18  1  0  0  0  0
  3 11  1  0  0  0  0
  3 35  1  0  0  0  0
  3 36  1  0  0  0  0
  4 12  1  0  0  0  0
  4 37  1  0  0  0  0
  4 38  1  0  0  0  0
  5 17  1  0  0  0  0
  5 39  1  0  0  0  0
  5 40  1  0  0  0  0
  6 18  1  0  0  0  0
  6 41  1  0  0  0  0
  6 42  1  0  0  0  0
  7 25  3  0  0  0  0
  8 26  3  0  0  0  0
  9 11  1  0  0  0  0
  9 13  2  0  0  0  0
 10 12  1  0  0  0  0
 10 14  2  0  0  0  0
 11 15  2  0  0  0  0
 12 16  2  0  0  0  0
 13 21  1  0  0  0  0
 13 27  1  0  0  0  0
 14 22  1  0  0  0  0
 14 28  1  0  0  0  0
 15 23  1  0  0  0  0
 15 29  1  0  0  0  0
 16 24  1  0  0  0  0
 16 30  1  0  0  0  0
 17 19  2  0  0  0  0
 18 20  2  0  0  0  0
 19 20  1  0  0  0  0
 19 25  1  0  0  0  0
 20 26  1  0  0  0  0
 21 23  2  0  0  0  0
 21 31  1  0  0  0  0
 22 24  2  0  0  0  0
 22 32  1  0  0  0  0
 23 33  1  0  0  0  0
 24 34  1  0  0  0  0
M  END
> <PUBCHEM_COMPOUND_CID>
5354033

> <PUBCHEM_COMPOUND_CANONICALIZED>
1

> <PUBCHEM_CACTVS_COMPLEXITY>
610

> <PUBCHEM_CACTVS_HBOND_ACCEPTOR>
8

> <PUBCHEM_CACTVS_HBOND_DONOR>
4

> <PUBCHEM_CACTVS_ROTATABLE_BOND>
5

> <PUBCHEM_CACTVS_SUBSKEYS>
AAADceB7gABgAAAAAAAAAAAAAAAAAAAAAAAwYAAAAAAAAAABQAAAHAQQAAAADAiBUAAwwYBAAAiQBiRCQACiAABgChAIiBwAZIgIoCKgkZGAIABgkAAIyA8QAAAAAAAAAAAAAQAAAAAAAAACAAAAAAAAAA==

> <PUBCHEM_IUPAC_OPENEYE_NAME>
(2E,3Z)-2,3-bis[amino-(2-aminophenyl)sulfanyl-methylene]butanedinitrile

> <PUBCHEM_IUPAC_CAS_NAME>
(2E,3Z)-2,3-bis[amino-[(2-aminophenyl)thio]methylidene]butanedinitrile

> <PUBCHEM_IUPAC_NAME>
(2E,3Z)-2,3-bis[amino-(2-aminophenyl)sulfanylmethylidene]butanedinitrile

> <PUBCHEM_IUPAC_SYSTEMATIC_NAME>
(2E,3Z)-2,3-bis[(2-aminophenyl)sulfanyl-azanyl-methylidene]butanedinitrile

> <PUBCHEM_IUPAC_TRADITIONAL_NAME>
(2E,3Z)-2,3-bis[amino-[(2-aminophenyl)thio]methylene]succinonitrile

> <PUBCHEM_IUPAC_INCHI>
InChI=1S/C18H16N6S2/c19-9-11(17(23)25-15-7-3-1-5-13(15)21)12(10-20)18(24)26-16-8-4-2-6-14(16)22/h1-8H,21-24H2/b17-11-,18-12+

> <PUBCHEM_IUPAC_INCHIKEY>
DVEXZJFMOKTQEZ-MJZABRMRSA-N

> <PUBCHEM_XLOGP3_AA>
2

> <PUBCHEM_EXACT_MASS>
380.088

> <PUBCHEM_MOLECULAR_FORMULA>
C18H16N6S2

> <PUBCHEM_MOLECULAR_WEIGHT>
380.488

> <PUBCHEM_OPENEYE_CAN_SMILES>
C1=CC=C(C(=C1)N)SC(=C(C#N)C(=C(N)SC2=CC=CC=C2N)C#N)N

> <PUBCHEM_OPENEYE_ISO_SMILES>
C1=CC=C(C(=C1)N)S/C(=C(\C#N)/C(=C(/N)\SC2=CC=CC=C2N)/C#N)/N

> <PUBCHEM_CACTVS_TPSA>
202

> <PUBCHEM_MONOISOTOPIC_WEIGHT>
380.088

> <PUBCHEM_TOTAL_CHARGE>
0

> <PUBCHEM_HEAVY_ATOM_COUNT>
26

> <PUBCHEM_ATOM_DEF_STEREO_COUNT>
0

> <PUBCHEM_ATOM_UDEF_STEREO_COUNT>
0

> <PUBCHEM_BOND_DEF_STEREO_COUNT>
2

> <PUBCHEM_BOND_UDEF_STEREO_COUNT>
0

> <PUBCHEM_ISOTOPIC_ATOM_COUNT>
0

> <PUBCHEM_COMPONENT_COUNT>
1

> <PUBCHEM_CACTVS_TAUTO_COUNT>
3

> <PUBCHEM_COORDINATE_TYPE>
1
5
255

> <PUBCHEM_BONDANNOTATIONS>
10  12  8
10  14  8
11  15  8
12  16  8
13  21  8
14  22  8
15  23  8
16  24  8
21  23  8
22  24  8
9  11  8
9  13  8

$$$$
2803152
  -OEChem-11021605012D

 38 40  0     1  0  0  0  0  0999 V2000
    6.2619   -1.0683    0.0000 O   0  0  0  0  0  0  0  0  0  0  0  0
    4.6783   -1.8730    0.0000 N   0  0  0  0  0  0  0  0  0  0  0  0
    8.9030    1.5118    0.0000 N   0  0  0  0  0  0  0  0  0  0  0  0
    4.6783   -0.2636    0.0000 C   0  0  3  0  0  0  0  0  0  0  0  0
    4.9889    0.6870    0.0000 C   0  0  0  0  0  0  0  0  0  0  0  0
    3.7320   -0.5683    0.0000 C   0  0  0  0  0  0  0  0  0  0  0  0
    3.7320   -1.5683    0.0000 C   0  0  0  0  0  0  0  0  0  0  0  0
    5.2619   -1.0683    0.0000 C   0  0  0  0  0  0  0  0  0  0  0  0
    5.9674    0.8932    0.0000 C   0  0  0  0  0  0  0  0  0  0  0  0
    2.8660   -0.0683    0.0000 C   0  0  0  0  0  0  0  0  0  0  0  0
    2.8660   -2.0683    0.0000 C   0  0  0  0  0  0  0  0  0  0  0  0
    6.6353    0.1489    0.0000 C   0  0  0  0  0  0  0  0  0  0  0  0
    6.2781    1.8437    0.0000 C   0  0  0  0  0  0  0  0  0  0  0  0
    2.0000   -0.5683    0.0000 C   0  0  0  0  0  0  0  0  0  0  0  0
    2.0000   -1.5683    0.0000 C   0  0  0  0  0  0  0  0  0  0  0  0
    7.9244    1.3056    0.0000 C   0  0  0  0  0  0  0  0  0  0  0  0
    7.6138    0.3551    0.0000 C   0  0  0  0  0  0  0  0  0  0  0  0
    7.2566    2.0499    0.0000 C   0  0  0  0  0  0  0  0  0  0  0  0
    9.2136    2.4623    0.0000 C   0  0  0  0  0  0  0  0  0  0  0  0
    9.5708    0.7675    0.0000 C   0  0  0  0  0  0  0  0  0  0  0  0
    5.2908   -0.1674    0.0000 H   0  0  0  0  0  0  0  0  0  0  0  0
    4.9684    1.3066    0.0000 H   0  0  0  0  0  0  0  0  0  0  0  0
    4.3751    0.7743    0.0000 H   0  0  0  0  0  0  0  0  0  0  0  0
    4.8709   -2.4623    0.0000 H   0  0  0  0  0  0  0  0  0  0  0  0
    2.8660    0.5517    0.0000 H   0  0  0  0  0  0  0  0  0  0  0  0
    2.8660   -2.6883    0.0000 H   0  0  0  0  0  0  0  0  0  0  0  0
    6.4427   -0.4404    0.0000 H   0  0  0  0  0  0  0  0  0  0  0  0
    5.8640    2.3052    0.0000 H   0  0  0  0  0  0  0  0  0  0  0  0
    1.4631   -0.2583    0.0000 H   0  0  0  0  0  0  0  0  0  0  0  0
    1.4631   -1.8783    0.0000 H   0  0  0  0  0  0  0  0  0  0  0  0
    8.0279   -0.1064    0.0000 H   0  0  0  0  0  0  0  0  0  0  0  0
    7.4492    2.6392    0.0000 H   0  0  0  0  0  0  0  0  0  0  0  0
    9.8029    2.2697    0.0000 H   0  0  0  0  0  0  0  0  0  0  0  0
    9.1093    0.3535    0.0000 H   0  0  0  0  0  0  0  0  0  0  0  0
    9.9849    0.3061    0.0000 H   0  0  0  0  0  0  0  0  0  0  0  0
   10.0323    1.1816    0.0000 H   0  0  0  0  0  0  0  0  0  0  0  0
    9.4062    3.0517    0.0000 H   0  0  0  0  0  0  0  0  0  0  0  0
    8.6243    2.6550    0.0000 H   0  0  0  0  0  0  0  0  0  0  0  0
  1  8  2  0  0  0  0
  2  7  1  0  0  0  0
  2  8  1  0  0  0  0
  2 24  1  0  0  0  0
  3 16  1  0  0  0  0
  3 19  1  0  0  0  0
  3 20  1  0  0  0  0
  4  5  1  0  0  0  0
  4  6  1  0  0  0  0
  4  8  1  0  0  0  0
  4 21  1  0  0  0  0
  5  9  1  0  0  0  0
  5 22  1  0  0  0  0
  5 23  1  0  0  0  0
  6  7  1  0  0  0  0
  6 10  2  0  0  0  0
  7 11  2  0  0  0  0
  9 12  2  0  0  0  0
  9 13  1  0  0  0  0
 10 14  1  0  0  0  0
 10 25  1  0  0  0  0
 11 15  1  0  0  0  0
 11 26  1  0  0  0  0
 12 17  1  0  0  0  0
 12 27  1  0  0  0  0
 13 18  2  0  0  0  0
 13 28  1  0  0  0  0
 14 15  2  0  0  0  0
 14 29  1  0  0  0  0
 15 30  1  0  0  0  0
 16 17  2  0  0  0  0
 16 18  1  0  0  0  0
 17 31  1  0  0  0  0
 18 32  1  0  0  0  0
 19 33  1  0  0  0  0
 19 37  1  0  0  0  0
 19 38  1  0  0  0  0
 20 34  1  0  0  0  0
 20 35  1  0  0  0  0
 20 36  1  0  0  0  0
M  END
> <PUBCHEM_COMPOUND_CID>
2803152

> <PUBCHEM_COMPOUND_CANONICALIZED>
1

> <PUBCHEM_CACTVS_COMPLEXITY>
347

> <PUBCHEM_CACTVS_HBOND_ACCEPTOR>
2

> <PUBCHEM_CACTVS_HBOND_DONOR>
1

> <PUBCHEM_CACTVS_ROTATABLE_BOND>
3

> <PUBCHEM_CACTVS_SUBSKEYS>
AAADceB7IAAAAAAAAAAAAAAAAAAAAWAAAAAwYAAAAAAAAFgBQAAAHgAQAAAADQiBmAQywIPAAACIAiVSUACCAAAhAgAIiAEIZIgIIDLAlZGEIAhglADIyAcciMCOiAAAAAACAAAQAAAAAAQAAAAAAAAAAA==

> <PUBCHEM_IUPAC_OPENEYE_NAME>
3-[[4-(dimethylamino)phenyl]methyl]indolin-2-one

> <PUBCHEM_IUPAC_CAS_NAME>
3-[[4-(dimethylamino)phenyl]methyl]-1,3-dihydroindol-2-one

> <PUBCHEM_IUPAC_NAME>
3-[[4-(dimethylamino)phenyl]methyl]-1,3-dihydroindol-2-one

> <PUBCHEM_IUPAC_SYSTEMATIC_NAME>
3-[[4-(dimethylamino)phenyl]methyl]-1,3-dihydroindol-2-one

> <PUBCHEM_IUPAC_TRADITIONAL_NAME>
3-[4-(dimethylamino)benzyl]oxindole

> <PUBCHEM_IUPAC_INCHI>
InChI=1S/C17H18N2O/c1-19(2)13-9-7-12(8-10-13)11-15-14-5-3-4-6-16(14)18-17(15)20/h3-10,15H,11H2,1-2H3,(H,18,20)

> <PUBCHEM_IUPAC_INCHIKEY>
WEKJKJMTUWIENI-UHFFFAOYSA-N

> <PUBCHEM_XLOGP3_AA>
2.9

> <PUBCHEM_EXACT_MASS>
266.142

> <PUBCHEM_MOLECULAR_FORMULA>
C17H18N2O

> <PUBCHEM_MOLECULAR_WEIGHT>
266.344

> <PUBCHEM_OPENEYE_CAN_SMILES>
CN(C)C1=CC=C(C=C1)CC2C3=CC=CC=C3NC2=O

> <PUBCHEM_OPENEYE_ISO_SMILES>
CN(C)C1=CC=C(C=C1)CC2C3=CC=CC=C3NC2=O

> <PUBCHEM_CACTVS_TPSA>
32.3

> <PUBCHEM_MONOISOTOPIC_WEIGHT>
266.142

> <PUBCHEM_TOTAL_CHARGE>
0

> <PUBCHEM_HEAVY_ATOM_COUNT>
20

> <PUBCHEM_ATOM_DEF_STEREO_COUNT>
0

> <PUBCHEM_ATOM_UDEF_STEREO_COUNT>
1

> <PUBCHEM_BOND_DEF_STEREO_COUNT>
0

> <PUBCHEM_BOND_UDEF_STEREO_COUNT>
0

> <PUBCHEM_ISOTOPIC_ATOM_COUNT>
0

> <PUBCHEM_COMPONENT_COUNT>
1

> <PUBCHEM_CACTVS_TAUTO_COUNT>
3

> <PUBCHEM_COORDINATE_TYPE>
1
5
255

> <PUBCHEM_BONDANNOTATIONS>
10  14  8
11  15  8
12  17  8
13  18  8
14  15  8
16  17  8
16  18  8
4  5  3
6  10  8
6  7  8
7  11  8
9  12  8
9  13  8

$$$$
3894
  -OEChem-11021605012D

 47 49  0     1  0  0  0  0  0999 V2000
    8.0622    1.5950    0.0000 O   0  0  0  0  0  0  0  0  0  0  0  0
    2.8660    1.5950    0.0000 O   0  0  0  0  0  0  0  0  0  0  0  0
    5.4641   -3.9050    0.0000 O   0  0  0  0  0  0  0  0  0  0  0  0
    4.5981    3.5950    0.0000 O   0  0  0  0  0  0  0  0  0  0  0  0
    2.8660   -2.4050    0.0000 O   0  0  0  0  0  0  0  0  0  0  0  0
    3.7320   -3.9050    0.0000 O   0  0  0  0  0  0  0  0  0  0  0  0
    5.4641    0.0950    0.0000 N   0  0  3  0  0  0  0  0  0  0  0  0
    6.3301    0.5950    0.0000 C   0  0  0  0  0  0  0  0  0  0  0  0
    4.5981    0.5950    0.0000 C   0  0  0  0  0  0  0  0  0  0  0  0
    5.4641   -0.9050    0.0000 C   0  0  0  0  0  0  0  0  0  0  0  0
    6.3301    1.5950    0.0000 C   0  0  0  0  0  0  0  0  0  0  0  0
    3.7320    0.0950    0.0000 C   0  0  0  0  0  0  0  0  0  0  0  0
    4.5981   -1.4050    0.0000 C   0  0  0  0  0  0  0  0  0  0  0  0
    6.3301   -1.4050    0.0000 C   0  0  0  0  0  0  0  0  0  0  0  0
    7.1962    2.0950    0.0000 C   0  0  0  0  0  0  0  0  0  0  0  0
    5.4641    2.0950    0.0000 C   0  0  0  0  0  0  0  0  0  0  0  0
    2.8660    0.5950    0.0000 C   0  0  0  0  0  0  0  0  0  0  0  0
    4.5981   -2.4050    0.0000 C   0  0  0  0  0  0  0  0  0  0  0  0
    3.7320   -0.9050    0.0000 C   0  0  0  0  0  0  0  0  0  0  0  0
    6.3301   -2.4050    0.0000 C   0  0  0  0  0  0  0  0  0  0  0  0
    5.4641   -2.9050    0.0000 C   0  0  0  0  0  0  0  0  0  0  0  0
    5.4641    3.0950    0.0000 C   0  0  0  0  0  0  0  0  0  0  0  0
    7.1962    3.0950    0.0000 C   0  0  0  0  0  0  0  0  0  0  0  0
    2.0000    0.0950    0.0000 C   0  0  0  0  0  0  0  0  0  0  0  0
    2.8660   -1.4050    0.0000 C   0  0  0  0  0  0  0  0  0  0  0  0
    6.3301    3.5950    0.0000 C   0  0  0  0  0  0  0  0  0  0  0  0
    2.0000   -0.9050    0.0000 C   0  0  0  0  0  0  0  0  0  0  0  0
    3.7320   -2.9050    0.0000 C   0  0  0  0  0  0  0  0  0  0  0  0
    6.5422    0.0124    0.0000 H   0  0  0  0  0  0  0  0  0  0  0  0
    6.9407    0.7027    0.0000 H   0  0  0  0  0  0  0  0  0  0  0  0
    4.9966    1.0700    0.0000 H   0  0  0  0  0  0  0  0  0  0  0  0
    4.1996    1.0700    0.0000 H   0  0  0  0  0  0  0  0  0  0  0  0
    4.0611   -1.0950    0.0000 H   0  0  0  0  0  0  0  0  0  0  0  0
    6.8671   -1.0950    0.0000 H   0  0  0  0  0  0  0  0  0  0  0  0
    4.9272    1.7850    0.0000 H   0  0  0  0  0  0  0  0  0  0  0  0
    4.2690   -1.2150    0.0000 H   0  0  0  0  0  0  0  0  0  0  0  0
    6.8671   -2.7150    0.0000 H   0  0  0  0  0  0  0  0  0  0  0  0
    7.7331    3.4050    0.0000 H   0  0  0  0  0  0  0  0  0  0  0  0
    1.4631    0.4050    0.0000 H   0  0  0  0  0  0  0  0  0  0  0  0
    2.8660   -2.0250    0.0000 H   0  0  0  0  0  0  0  0  0  0  0  0
    6.3301    4.2150    0.0000 H   0  0  0  0  0  0  0  0  0  0  0  0
    1.4631   -1.2150    0.0000 H   0  0  0  0  0  0  0  0  0  0  0  0
    8.5991    1.9050    0.0000 H   0  0  0  0  0  0  0  0  0  0  0  0
    2.3291    1.9050    0.0000 H   0  0  0  0  0  0  0  0  0  0  0  0
    6.0010   -4.2150    0.0000 H   0  0  0  0  0  0  0  0  0  0  0  0
    4.5981    4.2150    0.0000 H   0  0  0  0  0  0  0  0  0  0  0  0
    2.3291   -2.7150    0.0000 H   0  0  0  0  0  0  0  0  0  0  0  0
  1 15  1  0  0  0  0
  1 43  1  0  0  0  0
  2 17  1  0  0  0  0
  2 44  1  0  0  0  0
  3 21  1  0  0  0  0
  3 45  1  0  0  0  0
  4 22  1  0  0  0  0
  4 46  1  0  0  0  0
  5 28  1  0  0  0  0
  5 47  1  0  0  0  0
  6 28  2  0  0  0  0
  7  8  1  0  0  0  0
  7  9  1  0  0  0  0
  7 10  1  0  0  0  0
  8 11  1  0  0  0  0
  8 29  1  0  0  0  0
  8 30  1  0  0  0  0
  9 12  1  0  0  0  0
  9 31  1  0  0  0  0
  9 32  1  0  0  0  0
 10 13  2  0  0  0  0
 10 14  1  0  0  0  0
 11 15  2  0  0  0  0
 11 16  1  0  0  0  0
 12 17  1  0  0  0  0
 12 19  2  0  0  0  0
 13 18  1  0  0  0  0
 13 33  1  0  0  0  0
 14 20  2  0  0  0  0
 14 34  1  0  0  0  0
 15 23  1  0  0  0  0
 16 22  2  0  0  0  0
 16 35  1  0  0  0  0
 17 24  2  0  0  0  0
 18 21  2  0  0  0  0
 18 28  1  0  0  0  0
 19 25  1  0  0  0  0
 19 36  1  0  0  0  0
 20 21  1  0  0  0  0
 20 37  1  0  0  0  0
 22 26  1  0  0  0  0
 23 26  2  0  0  0  0
 23 38  1  0  0  0  0
 24 27  1  0  0  0  0
 24 39  1  0  0  0  0
 25 27  2  0  0  0  0
 25 40  1  0  0  0  0
 26 41  1  0  0  0  0
 27 42  1  0  0  0  0
M  END
> <PUBCHEM_COMPOUND_CID>
3894

> <PUBCHEM_COMPOUND_CANONICALIZED>
1

> <PUBCHEM_CACTVS_COMPLEXITY>
517

> <PUBCHEM_CACTVS_HBOND_ACCEPTOR>
7

> <PUBCHEM_CACTVS_HBOND_DONOR>
5

> <PUBCHEM_CACTVS_ROTATABLE_BOND>
6

> <PUBCHEM_CACTVS_SUBSKEYS>
AAADceB6OAAAAAAAAAAAAAAAAAAAAAAAAAAwYMAAAAAAAAABUAAAHgAACAAADAzBmAQwzoMAAgCIAiTSSACCAAAlIgAIiAEObMgIJzbClZOEcUhn4BHI2Yf8yDCOAUABQAAIAAACgAKAABAAAAAAAAAAAA==

> <PUBCHEM_IUPAC_OPENEYE_NAME>
5-[(2,5-dihydroxyphenyl)methyl-[(2-hydroxyphenyl)methyl]amino]-2-hydroxy-benzoic acid

> <PUBCHEM_IUPAC_CAS_NAME>
5-[(2,5-dihydroxyphenyl)methyl-[(2-hydroxyphenyl)methyl]amino]-2-hydroxybenzoic acid

> <PUBCHEM_IUPAC_NAME>
5-[(2,5-dihydroxyphenyl)methyl-[(2-hydroxyphenyl)methyl]amino]-2-hydroxybenzoic acid

> <PUBCHEM_IUPAC_SYSTEMATIC_NAME>
5-[[2,5-bis(oxidanyl)phenyl]methyl-[(2-hydroxyphenyl)methyl]amino]-2-oxidanyl-benzoic acid

> <PUBCHEM_IUPAC_TRADITIONAL_NAME>
5-[(2,5-dihydroxybenzyl)-salicyl-amino]-2-hydroxy-benzoic acid

> <PUBCHEM_IUPAC_INCHI>
InChI=1S/C21H19NO6/c23-16-6-8-19(25)14(9-16)12-22(11-13-3-1-2-4-18(13)24)15-5-7-20(26)17(10-15)21(27)28/h1-10,23-26H,11-12H2,(H,27,28)

> <PUBCHEM_IUPAC_INCHIKEY>
ULTTYPMRMMDONC-UHFFFAOYSA-N

> <PUBCHEM_XLOGP3_AA>
3.7

> <PUBCHEM_EXACT_MASS>
381.121

> <PUBCHEM_MOLECULAR_FORMULA>
C21H19NO6

> <PUBCHEM_MOLECULAR_WEIGHT>
381.384

> <PUBCHEM_OPENEYE_CAN_SMILES>
C1=CC=C(C(=C1)CN(CC2=C(C=CC(=C2)O)O)C3=CC(=C(C=C3)O)C(=O)O)O

> <PUBCHEM_OPENEYE_ISO_SMILES>
C1=CC=C(C(=C1)CN(CC2=C(C=CC(=C2)O)O)C3=CC(=C(C=C3)O)C(=O)O)O

> <PUBCHEM_CACTVS_TPSA>
122

> <PUBCHEM_MONOISOTOPIC_WEIGHT>
381.121

> <PUBCHEM_TOTAL_CHARGE>
0

> <PUBCHEM_HEAVY_ATOM_COUNT>
28

> <PUBCHEM_ATOM_DEF_STEREO_COUNT>
0

> <PUBCHEM_ATOM_UDEF_STEREO_COUNT>
0

> <PUBCHEM_BOND_DEF_STEREO_COUNT>
0

> <PUBCHEM_BOND_UDEF_STEREO_COUNT>
0

> <PUBCHEM_ISOTOPIC_ATOM_COUNT>
0

> <PUBCHEM_COMPONENT_COUNT>
1

> <PUBCHEM_CACTVS_TAUTO_COUNT>
72

> <PUBCHEM_COORDINATE_TYPE>
1
5
255

> <PUBCHEM_BONDANNOTATIONS>
10  13  8
10  14  8
11  15  8
11  16  8
12  17  8
12  19  8
13  18  8
14  20  8
15  23  8
16  22  8
17  24  8
18  21  8
19  25  8
20  21  8
22  26  8
23  26  8
24  27  8
25  27  8

$$$$
3546
  -OEChem-11021605012D

 35 36  0     0  0  0  0  0  0999 V2000
    5.1350    1.0427    0.0000 S   0  0  0  0  0  0  0  0  0  0  0  0
    4.1350    1.0427    0.0000 O   0  0  0  0  0  0  0  0  0  0  0  0
    6.1350    1.0427    0.0000 O   0  0  0  0  0  0  0  0  0  0  0  0
    5.1350    0.0427    0.0000 N   0  0  0  0  0  0  0  0  0  0  0  0
    7.8010    3.5635    0.0000 N   0  0  0  0  0  0  0  0  0  0  0  0
    3.4030   -1.9573    0.0000 N   0  0  0  0  0  0  0  0  0  0  0  0
    2.5369   -3.4573    0.0000 N   0  0  0  0  0  0  0  0  0  0  0  0
    4.2690   -3.4573    0.0000 N   0  0  0  0  0  0  0  0  0  0  0  0
    5.1350    2.0427    0.0000 C   0  0  0  0  0  0  0  0  0  0  0  0
    6.0010    2.5427    0.0000 C   0  0  0  0  0  0  0  0  0  0  0  0
    6.0010    3.5427    0.0000 C   0  0  0  0  0  0  0  0  0  0  0  0
    4.2690   -0.4573    0.0000 C   0  0  0  0  0  0  0  0  0  0  0  0
    4.2690    2.5427    0.0000 C   0  0  0  0  0  0  0  0  0  0  0  0
    5.1350    4.0427    0.0000 C   0  0  0  0  0  0  0  0  0  0  0  0
    6.8950    2.0080    0.0000 C   0  0  0  0  0  0  0  0  0  0  0  0
    4.2690    3.5427    0.0000 C   0  0  0  0  0  0  0  0  0  0  0  0
    4.2690   -1.4573    0.0000 C   0  0  0  0  0  0  0  0  0  0  0  0
    6.8950    4.0773    0.0000 C   0  0  0  0  0  0  0  0  0  0  0  0
    7.8010    2.5218    0.0000 C   0  0  0  0  0  0  0  0  0  0  0  0
    3.4030   -2.9573    0.0000 C   0  0  0  0  0  0  0  0  0  0  0  0
    5.6720   -0.2673    0.0000 H   0  0  0  0  0  0  0  0  0  0  0  0
    4.0569    0.1253    0.0000 H   0  0  0  0  0  0  0  0  0  0  0  0
    3.6584   -0.5650    0.0000 H   0  0  0  0  0  0  0  0  0  0  0  0
    3.7320    2.2327    0.0000 H   0  0  0  0  0  0  0  0  0  0  0  0
    5.1350    4.6627    0.0000 H   0  0  0  0  0  0  0  0  0  0  0  0
    6.8878    1.3880    0.0000 H   0  0  0  0  0  0  0  0  0  0  0  0
    4.4810   -2.0399    0.0000 H   0  0  0  0  0  0  0  0  0  0  0  0
    4.8796   -1.3497    0.0000 H   0  0  0  0  0  0  0  0  0  0  0  0
    3.7320    3.8527    0.0000 H   0  0  0  0  0  0  0  0  0  0  0  0
    6.8878    4.6973    0.0000 H   0  0  0  0  0  0  0  0  0  0  0  0
    8.3368    2.2098    0.0000 H   0  0  0  0  0  0  0  0  0  0  0  0
    2.5369   -4.0773    0.0000 H   0  0  0  0  0  0  0  0  0  0  0  0
    2.0000   -3.1473    0.0000 H   0  0  0  0  0  0  0  0  0  0  0  0
    4.2690   -4.0773    0.0000 H   0  0  0  0  0  0  0  0  0  0  0  0
    4.8059   -3.1473    0.0000 H   0  0  0  0  0  0  0  0  0  0  0  0
  1  2  2  0  0  0  0
  1  3  2  0  0  0  0
  1  4  1  0  0  0  0
  1  9  1  0  0  0  0
  4 12  1  0  0  0  0
  4 21  1  0  0  0  0
  5 18  2  0  0  0  0
  5 19  1  0  0  0  0
  6 17  1  0  0  0  0
  6 20  2  0  0  0  0
  7 20  1  0  0  0  0
  7 32  1  0  0  0  0
  7 33  1  0  0  0  0
  8 20  1  0  0  0  0
  8 34  1  0  0  0  0
  8 35  1  0  0  0  0
  9 10  1  0  0  0  0
  9 13  2  0  0  0  0
 10 11  2  0  0  0  0
 10 15  1  0  0  0  0
 11 14  1  0  0  0  0
 11 18  1  0  0  0  0
 12 17  1  0  0  0  0
 12 22  1  0  0  0  0
 12 23  1  0  0  0  0
 13 16  1  0  0  0  0
 13 24  1  0  0  0  0
 14 16  2  0  0  0  0
 14 25  1  0  0  0  0
 15 19  2  0  0  0  0
 15 26  1  0  0  0  0
 16 29  1  0  0  0  0
 17 27  1  0  0  0  0
 17 28  1  0  0  0  0
 18 30  1  0  0  0  0
 19 31  1  0  0  0  0
M  END
> <PUBCHEM_COMPOUND_CID>
3546

> <PUBCHEM_COMPOUND_CANONICALIZED>
1

> <PUBCHEM_CACTVS_COMPLEXITY>
441

> <PUBCHEM_CACTVS_HBOND_ACCEPTOR>
5

> <PUBCHEM_CACTVS_HBOND_DONOR>
3

> <PUBCHEM_CACTVS_ROTATABLE_BOND>
5

> <PUBCHEM_CACTVS_SUBSKEYS>
AAADccBzsABAAAAAAAAAAAAAAAAAAAAAAAA8QAAAAAAAAACx8AAAHAQQQAAADADBWgQ9gdJIEAKgAjBnZHDCgDExAiAI2Lg4ZJgIYOLAkZGEIAhgkADIyAcQgIAOgAAAgAAUAAAAAAEAACgAAAAAAAAAAA==

> <PUBCHEM_IUPAC_OPENEYE_NAME>
2-[2-(5-isoquinolylsulfonylamino)ethyl]guanidine

> <PUBCHEM_IUPAC_CAS_NAME>
2-[2-(5-isoquinolinylsulfonylamino)ethyl]guanidine

> <PUBCHEM_IUPAC_NAME>
2-[2-(isoquinolin-5-ylsulfonylamino)ethyl]guanidine

> <PUBCHEM_IUPAC_SYSTEMATIC_NAME>
2-[2-(isoquinolin-5-ylsulfonylamino)ethyl]guanidine

> <PUBCHEM_IUPAC_TRADITIONAL_NAME>
2-[2-(5-isoquinolylsulfonylamino)ethyl]guanidine

> <PUBCHEM_IUPAC_INCHI>
InChI=1S/C12H15N5O2S/c13-12(14)16-6-7-17-20(18,19)11-3-1-2-9-8-15-5-4-10(9)11/h1-5,8,17H,6-7H2,(H4,13,14,16)

> <PUBCHEM_IUPAC_INCHIKEY>
MZNDNBFMSVMUCX-UHFFFAOYSA-N

> <PUBCHEM_XLOGP3_AA>
-0.5

> <PUBCHEM_EXACT_MASS>
293.095

> <PUBCHEM_MOLECULAR_FORMULA>
C12H15N5O2S

> <PUBCHEM_MOLECULAR_WEIGHT>
293.345

> <PUBCHEM_OPENEYE_CAN_SMILES>
C1=CC2=C(C=CN=C2)C(=C1)S(=O)(=O)NCCN=C(N)N

> <PUBCHEM_OPENEYE_ISO_SMILES>
C1=CC2=C(C=CN=C2)C(=C1)S(=O)(=O)NCCN=C(N)N

> <PUBCHEM_CACTVS_TPSA>
132

> <PUBCHEM_MONOISOTOPIC_WEIGHT>
293.095

> <PUBCHEM_TOTAL_CHARGE>
0

> <PUBCHEM_HEAVY_ATOM_COUNT>
20

> <PUBCHEM_ATOM_DEF_STEREO_COUNT>
0

> <PUBCHEM_ATOM_UDEF_STEREO_COUNT>
0

> <PUBCHEM_BOND_DEF_STEREO_COUNT>
0

> <PUBCHEM_BOND_UDEF_STEREO_COUNT>
0

> <PUBCHEM_ISOTOPIC_ATOM_COUNT>
0

> <PUBCHEM_COMPONENT_COUNT>
1

> <PUBCHEM_CACTVS_TAUTO_COUNT>
2

> <PUBCHEM_COORDINATE_TYPE>
1
5
255

> <PUBCHEM_BONDANNOTATIONS>
10  11  8
10  15  8
11  14  8
11  18  8
13  16  8
14  16  8
15  19  8
5  18  8
5  19  8
9  10  8
9  13  8

$$$$
123596
  -OEChem-11021605012D

 77 80  0     0  0  0  0  0  0999 V2000
   12.3447    6.7055    0.0000 S   0  0  0  0  0  0  0  0  0  0  0  0
    5.8067    6.1200    0.0000 O   0  0  0  0  0  0  0  0  0  0  0  0
   13.2107    7.2055    0.0000 O   0  0  0  0  0  0  0  0  0  0  0  0
   11.8447    7.5715    0.0000 O   0  0  0  0  0  0  0  0  0  0  0  0
   12.8447    5.8394    0.0000 O   0  0  0  0  0  0  0  0  0  0  0  0
    1.4766    3.6200    0.0000 N   0  0  0  0  0  0  0  0  0  0  0  0
    1.4766    1.6200    0.0000 N   0  0  0  0  0  0  0  0  0  0  0  0
    4.9407    7.6200    0.0000 N   0  0  0  0  0  0  0  0  0  0  0  0
    6.6728   10.6200    0.0000 N   0  0  0  0  0  0  0  0  0  0  0  0
    4.9407   10.6200    0.0000 N   0  0  0  0  0  0  0  0  0  0  0  0
    5.8067   12.1200    0.0000 N   0  0  0  0  0  0  0  0  0  0  0  0
    1.4766   10.6200    0.0000 N   0  0  0  0  0  0  0  0  0  0  0  0
    0.6106    3.1200    0.0000 C   0  0  0  0  0  0  0  0  0  0  0  0
    2.3426    3.1200    0.0000 C   0  0  0  0  0  0  0  0  0  0  0  0
    0.6106    2.1200    0.0000 C   0  0  0  0  0  0  0  0  0  0  0  0
    2.3426    2.1200    0.0000 C   0  0  0  0  0  0  0  0  0  0  0  0
    1.4766    4.6200    0.0000 C   0  0  0  0  0  0  0  0  0  0  0  0
    1.4766    0.6200    0.0000 C   0  0  0  0  0  0  0  0  0  0  0  0
    2.3426    5.1200    0.0000 C   0  0  0  0  0  0  0  0  0  0  0  0
    3.2087    4.6200    0.0000 C   0  0  0  0  0  0  0  0  0  0  0  0
    2.3426    6.1200    0.0000 C   0  0  0  0  0  0  0  0  0  0  0  0
    4.0747    5.1200    0.0000 C   0  0  0  0  0  0  0  0  0  0  0  0
    3.2087    6.6200    0.0000 C   0  0  0  0  0  0  0  0  0  0  0  0
    4.0747    6.1200    0.0000 C   0  0  0  0  0  0  0  0  0  0  0  0
    4.9407    6.6200    0.0000 C   0  0  0  0  0  0  0  0  0  0  0  0
    5.8067    8.1200    0.0000 C   0  0  0  0  0  0  0  0  0  0  0  0
    5.8067    9.1200    0.0000 C   0  0  0  0  0  0  0  0  0  0  0  0
    6.6728    9.6200    0.0000 C   0  0  0  0  0  0  0  0  0  0  0  0
    6.6728    7.6200    0.0000 C   0  0  0  0  0  0  0  0  0  0  0  0
    7.5388    9.1200    0.0000 C   0  0  0  0  0  0  0  0  0  0  0  0
    7.5388    8.1200    0.0000 C   0  0  0  0  0  0  0  0  0  0  0  0
    8.4048    9.6200    0.0000 C   0  0  0  0  0  0  0  0  0  0  0  0
    5.8067   11.1200    0.0000 C   0  0  0  0  0  0  0  0  0  0  0  0
    4.0747   11.1200    0.0000 C   0  0  0  0  0  0  0  0  0  0  0  0
    3.2087   10.6200    0.0000 C   0  0  0  0  0  0  0  0  0  0  0  0
    4.0747   12.1200    0.0000 C   0  0  0  0  0  0  0  0  0  0  0  0
    4.9407   12.6200    0.0000 C   0  0  0  0  0  0  0  0  0  0  0  0
    3.2087    9.6200    0.0000 C   0  0  0  0  0  0  0  0  0  0  0  0
    2.3426   11.1200    0.0000 C   0  0  0  0  0  0  0  0  0  0  0  0
    2.3426    9.1200    0.0000 C   0  0  0  0  0  0  0  0  0  0  0  0
    1.4766    9.6200    0.0000 C   0  0  0  0  0  0  0  0  0  0  0  0
   11.4787    6.2055    0.0000 C   0  0  0  0  0  0  0  0  0  0  0  0
    2.9532    3.0123    0.0000 H   0  0  0  0  0  0  0  0  0  0  0  0
    2.5547    3.7026    0.0000 H   0  0  0  0  0  0  0  0  0  0  0  0
    0.3985    3.7026    0.0000 H   0  0  0  0  0  0  0  0  0  0  0  0
    0.0000    3.0123    0.0000 H   0  0  0  0  0  0  0  0  0  0  0  0
    2.5547    1.5374    0.0000 H   0  0  0  0  0  0  0  0  0  0  0  0
    2.9532    2.2277    0.0000 H   0  0  0  0  0  0  0  0  0  0  0  0
    0.0000    2.2277    0.0000 H   0  0  0  0  0  0  0  0  0  0  0  0
    0.3985    1.5374    0.0000 H   0  0  0  0  0  0  0  0  0  0  0  0
    1.2646    5.2026    0.0000 H   0  0  0  0  0  0  0  0  0  0  0  0
    0.8660    4.5123    0.0000 H   0  0  0  0  0  0  0  0  0  0  0  0
    0.8566    0.6200    0.0000 H   0  0  0  0  0  0  0  0  0  0  0  0
    1.4766    0.0000    0.0000 H   0  0  0  0  0  0  0  0  0  0  0  0
    2.0966    0.6200    0.0000 H   0  0  0  0  0  0  0  0  0  0  0  0
    3.2087    4.0000    0.0000 H   0  0  0  0  0  0  0  0  0  0  0  0
    1.8057    6.4300    0.0000 H   0  0  0  0  0  0  0  0  0  0  0  0
    4.6116    4.8100    0.0000 H   0  0  0  0  0  0  0  0  0  0  0  0
    3.2087    7.2400    0.0000 H   0  0  0  0  0  0  0  0  0  0  0  0
    4.4038    7.9300    0.0000 H   0  0  0  0  0  0  0  0  0  0  0  0
    5.2698    9.4300    0.0000 H   0  0  0  0  0  0  0  0  0  0  0  0
    6.6728    7.0000    0.0000 H   0  0  0  0  0  0  0  0  0  0  0  0
    8.0757    7.8100    0.0000 H   0  0  0  0  0  0  0  0  0  0  0  0
    7.2097   10.9300    0.0000 H   0  0  0  0  0  0  0  0  0  0  0  0
    8.7148    9.0831    0.0000 H   0  0  0  0  0  0  0  0  0  0  0  0
    8.9418    9.9300    0.0000 H   0  0  0  0  0  0  0  0  0  0  0  0
    8.0948   10.1569    0.0000 H   0  0  0  0  0  0  0  0  0  0  0  0
    3.5378   12.4300    0.0000 H   0  0  0  0  0  0  0  0  0  0  0  0
    4.9407   13.2400    0.0000 H   0  0  0  0  0  0  0  0  0  0  0  0
    3.7456    9.3100    0.0000 H   0  0  0  0  0  0  0  0  0  0  0  0
    2.3426   11.7400    0.0000 H   0  0  0  0  0  0  0  0  0  0  0  0
    2.3426    8.5000    0.0000 H   0  0  0  0  0  0  0  0  0  0  0  0
    0.9397    9.3100    0.0000 H   0  0  0  0  0  0  0  0  0  0  0  0
   11.1687    6.7424    0.0000 H   0  0  0  0  0  0  0  0  0  0  0  0
   10.9417    5.8955    0.0000 H   0  0  0  0  0  0  0  0  0  0  0  0
   11.7887    5.6685    0.0000 H   0  0  0  0  0  0  0  0  0  0  0  0
   13.7477    6.8955    0.0000 H   0  0  0  0  0  0  0  0  0  0  0  0
  1  3  1  0  0  0  0
  1  4  2  0  0  0  0
  1  5  2  0  0  0  0
  1 42  1  0  0  0  0
  2 25  2  0  0  0  0
  3 77  1  0  0  0  0
  6 13  1  0  0  0  0
  6 14  1  0  0  0  0
  6 17  1  0  0  0  0
  7 15  1  0  0  0  0
  7 16  1  0  0  0  0
  7 18  1  0  0  0  0
  8 25  1  0  0  0  0
  8 26  1  0  0  0  0
  8 60  1  0  0  0  0
  9 28  1  0  0  0  0
  9 33  1  0  0  0  0
  9 64  1  0  0  0  0
 10 33  1  0  0  0  0
 10 34  2  0  0  0  0
 11 33  2  0  0  0  0
 11 37  1  0  0  0  0
 12 39  1  0  0  0  0
 12 41  2  0  0  0  0
 13 15  1  0  0  0  0
 13 45  1  0  0  0  0
 13 46  1  0  0  0  0
 14 16  1  0  0  0  0
 14 43  1  0  0  0  0
 14 44  1  0  0  0  0
 15 49  1  0  0  0  0
 15 50  1  0  0  0  0
 16 47  1  0  0  0  0
 16 48  1  0  0  0  0
 17 19  1  0  0  0  0
 17 51  1  0  0  0  0
 17 52  1  0  0  0  0
 18 53  1  0  0  0  0
 18 54  1  0  0  0  0
 18 55  1  0  0  0  0
 19 20  2  0  0  0  0
 19 21  1  0  0  0  0
 20 22  1  0  0  0  0
 20 56  1  0  0  0  0
 21 23  2  0  0  0  0
 21 57  1  0  0  0  0
 22 24  2  0  0  0  0
 22 58  1  0  0  0  0
 23 24  1  0  0  0  0
 23 59  1  0  0  0  0
 24 25  1  0  0  0  0
 26 27  2  0  0  0  0
 26 29  1  0  0  0  0
 27 28  1  0  0  0  0
 27 61  1  0  0  0  0
 28 30  2  0  0  0  0
 29 31  2  0  0  0  0
 29 62  1  0  0  0  0
 30 31  1  0  0  0  0
 30 32  1  0  0  0  0
 31 63  1  0  0  0  0
 32 65  1  0  0  0  0
 32 66  1  0  0  0  0
 32 67  1  0  0  0  0
 34 35  1  0  0  0  0
 34 36  1  0  0  0  0
 35 38  1  0  0  0  0
 35 39  2  0  0  0  0
 36 37  2  0  0  0  0
 36 68  1  0  0  0  0
 37 69  1  0  0  0  0
 38 40  2  0  0  0  0
 38 70  1  0  0  0  0
 39 71  1  0  0  0  0
 40 41  1  0  0  0  0
 40 72  1  0  0  0  0
 41 73  1  0  0  0  0
 42 74  1  0  0  0  0
 42 75  1  0  0  0  0
 42 76  1  0  0  0  0
M  END
> <PUBCHEM_COMPOUND_CID>
123596

> <PUBCHEM_COMPOUND_CANONICALIZED>
1

> <PUBCHEM_CACTVS_COMPLEXITY>
799

> <PUBCHEM_CACTVS_HBOND_ACCEPTOR>
10

> <PUBCHEM_CACTVS_HBOND_DONOR>
3

> <PUBCHEM_CACTVS_ROTATABLE_BOND>
7

> <PUBCHEM_CACTVS_SUBSKEYS>
AAADcfB7uABAAAAAAAAAAAAAAAAAAAAAAAA8eLECAAAAAAAB9AAAHgQQCAAADAjBngS/0JfIEIKoAzV3dHCCgCk1AqAJ2CE4ZNiIaPLA3dGUJQholALIyacYiACOSAAAAAQCAACQAAAACAQAAAAAAAAAAA==

> <PUBCHEM_IUPAC_OPENEYE_NAME>
methanesulfonic acid;4-[(4-methylpiperazin-1-yl)methyl]-N-[4-methyl-3-[[4-(3-pyridyl)pyrimidin-2-yl]amino]phenyl]benzamide

> <PUBCHEM_IUPAC_CAS_NAME>
methanesulfonic acid;4-[(4-methyl-1-piperazinyl)methyl]-N-[4-methyl-3-[[4-(3-pyridinyl)-2-pyrimidinyl]amino]phenyl]benzamide

> <PUBCHEM_IUPAC_NAME>
methanesulfonic acid;4-[(4-methylpiperazin-1-yl)methyl]-N-[4-methyl-3-[(4-pyridin-3-ylpyrimidin-2-yl)amino]phenyl]benzamide

> <PUBCHEM_IUPAC_SYSTEMATIC_NAME>
methanesulfonic acid;4-[(4-methylpiperazin-1-yl)methyl]-N-[4-methyl-3-[(4-pyridin-3-ylpyrimidin-2-yl)amino]phenyl]benzamide

> <PUBCHEM_IUPAC_TRADITIONAL_NAME>
mesylic acid;4-[(4-methylpiperazino)methyl]-N-[4-methyl-3-[[4-(3-pyridyl)pyrimidin-2-yl]amino]phenyl]benzamide

> <PUBCHEM_IUPAC_INCHI>
InChI=1S/C29H31N7O.CH4O3S/c1-21-5-10-25(18-27(21)34-29-31-13-11-26(33-29)24-4-3-12-30-19-24)32-28(37)23-8-6-22(7-9-23)20-36-16-14-35(2)15-17-36;1-5(2,3)4/h3-13,18-19H,14-17,20H2,1-2H3,(H,32,37)(H,31,33,34);1H3,(H,2,3,4)

> <PUBCHEM_IUPAC_INCHIKEY>
YLMAHDNUQAMNNX-UHFFFAOYSA-N

> <PUBCHEM_EXACT_MASS>
589.247

> <PUBCHEM_MOLECULAR_FORMULA>
C30H35N7O4S

> <PUBCHEM_MOLECULAR_WEIGHT>
589.715

> <PUBCHEM_OPENEYE_CAN_SMILES>
CC1=C(C=C(C=C1)NC(=O)C2=CC=C(C=C2)CN3CCN(CC3)C)NC4=NC=CC(=N4)C5=CN=CC=C5.CS(=O)(=O)O

> <PUBCHEM_OPENEYE_ISO_SMILES>
CC1=C(C=C(C=C1)NC(=O)C2=CC=C(C=C2)CN3CCN(CC3)C)NC4=NC=CC(=N4)C5=CN=CC=C5.CS(=O)(=O)O

> <PUBCHEM_CACTVS_TPSA>
149

> <PUBCHEM_MONOISOTOPIC_WEIGHT>
589.247

> <PUBCHEM_TOTAL_CHARGE>
0

> <PUBCHEM_HEAVY_ATOM_COUNT>
42

> <PUBCHEM_ATOM_DEF_STEREO_COUNT>
0

> <PUBCHEM_ATOM_UDEF_STEREO_COUNT>
0

> <PUBCHEM_BOND_DEF_STEREO_COUNT>
0

> <PUBCHEM_BOND_UDEF_STEREO_COUNT>
0

> <PUBCHEM_ISOTOPIC_ATOM_COUNT>
0

> <PUBCHEM_COMPONENT_COUNT>
2

> <PUBCHEM_CACTVS_TAUTO_COUNT>
6

> <PUBCHEM_COORDINATE_TYPE>
1
5
255

> <PUBCHEM_BONDANNOTATIONS>
10  33  8
10  34  8
11  33  8
11  37  8
12  39  8
12  41  8
19  20  8
19  21  8
20  22  8
21  23  8
22  24  8
23  24  8
26  27  8
26  29  8
27  28  8
28  30  8
29  31  8
30  31  8
34  36  8
35  38  8
35  39  8
36  37  8
38  40  8
40  41  8

$$$$
2052
  -OEChem-11021605012D

 20 20  0     0  0  0  0  0  0999 V2000
    4.2690    2.3450    0.0000 O   0  0  0  0  0  0  0  0  0  0  0  0
    2.5369    1.3450    0.0000 O   0  0  0  0  0  0  0  0  0  0  0  0
    7.7331   -2.6550    0.0000 N   0  0  0  0  0  0  0  0  0  0  0  0
    4.2690   -2.6550    0.0000 N   0  0  0  0  0  0  0  0  0  0  0  0
    5.1350   -0.1550    0.0000 C   0  0  0  0  0  0  0  0  0  0  0  0
    5.1350    0.8450    0.0000 C   0  0  0  0  0  0  0  0  0  0  0  0
    4.2690   -0.6550    0.0000 C   0  0  0  0  0  0  0  0  0  0  0  0
    4.2690    1.3450    0.0000 C   0  0  0  0  0  0  0  0  0  0  0  0
    3.4030    0.8450    0.0000 C   0  0  0  0  0  0  0  0  0  0  0  0
    3.4030   -0.1550    0.0000 C   0  0  0  0  0  0  0  0  0  0  0  0
    6.0010   -0.6550    0.0000 C   0  0  0  0  0  0  0  0  0  0  0  0
    6.0010   -1.6550    0.0000 C   0  0  0  0  0  0  0  0  0  0  0  0
    6.8671   -2.1550    0.0000 C   0  0  0  0  0  0  0  0  0  0  0  0
    5.1350   -2.1550    0.0000 C   0  0  0  0  0  0  0  0  0  0  0  0
    5.6720    1.1550    0.0000 H   0  0  0  0  0  0  0  0  0  0  0  0
    4.2690   -1.2750    0.0000 H   0  0  0  0  0  0  0  0  0  0  0  0
    2.8660   -0.4650    0.0000 H   0  0  0  0  0  0  0  0  0  0  0  0
    6.5380   -0.3450    0.0000 H   0  0  0  0  0  0  0  0  0  0  0  0
    4.8059    2.6550    0.0000 H   0  0  0  0  0  0  0  0  0  0  0  0
    2.0000    1.0350    0.0000 H   0  0  0  0  0  0  0  0  0  0  0  0
  1  8  1  0  0  0  0
  1 19  1  0  0  0  0
  2  9  1  0  0  0  0
  2 20  1  0  0  0  0
  3 13  3  0  0  0  0
  4 14  3  0  0  0  0
  5  6  2  0  0  0  0
  5  7  1  0  0  0  0
  5 11  1  0  0  0  0
  6  8  1  0  0  0  0
  6 15  1  0  0  0  0
  7 10  2  0  0  0  0
  7 16  1  0  0  0  0
  8  9  2  0  0  0  0
  9 10  1  0  0  0  0
 10 17  1  0  0  0  0
 11 12  2  0  0  0  0
 11 18  1  0  0  0  0
 12 13  1  0  0  0  0
 12 14  1  0  0  0  0
M  END
> <PUBCHEM_COMPOUND_CID>
2052

> <PUBCHEM_COMPOUND_CANONICALIZED>
1

> <PUBCHEM_CACTVS_COMPLEXITY>
313

> <PUBCHEM_CACTVS_HBOND_ACCEPTOR>
4

> <PUBCHEM_CACTVS_HBOND_DONOR>
2

> <PUBCHEM_CACTVS_ROTATABLE_BOND>
1

> <PUBCHEM_CACTVS_SUBSKEYS>
AAADcYBzMAAAAAAAAAAAAAAAAAAAAAAAAAAwAAAAAAAAAAABAAAAHgAACAAADASBmAAwBoAAAgCQBiBCAAAiAAAgIAAIiAAGiIgJpiKCERKAcAEkwBEJmAeAwBAOIAABAAAAQABAAAIAAACAAAAAAAAAAA==

> <PUBCHEM_IUPAC_OPENEYE_NAME>
2-[(3,4-dihydroxyphenyl)methylene]propanedinitrile

> <PUBCHEM_IUPAC_CAS_NAME>
2-[(3,4-dihydroxyphenyl)methylidene]propanedinitrile

> <PUBCHEM_IUPAC_NAME>
2-[(3,4-dihydroxyphenyl)methylidene]propanedinitrile

> <PUBCHEM_IUPAC_SYSTEMATIC_NAME>
2-[[3,4-bis(oxidanyl)phenyl]methylidene]propanedinitrile

> <PUBCHEM_IUPAC_TRADITIONAL_NAME>
2-(3,4-dihydroxybenzylidene)malononitrile

> <PUBCHEM_IUPAC_INCHI>
InChI=1S/C10H6N2O2/c11-5-8(6-12)3-7-1-2-9(13)10(14)4-7/h1-4,13-14H

> <PUBCHEM_IUPAC_INCHIKEY>
VTJXFTPMFYAJJU-UHFFFAOYSA-N

> <PUBCHEM_XLOGP3>
1.3

> <PUBCHEM_EXACT_MASS>
186.043

> <PUBCHEM_MOLECULAR_FORMULA>
C10H6N2O2

> <PUBCHEM_MOLECULAR_WEIGHT>
186.17

> <PUBCHEM_OPENEYE_CAN_SMILES>
C1=CC(=C(C=C1C=C(C#N)C#N)O)O

> <PUBCHEM_OPENEYE_ISO_SMILES>
C1=CC(=C(C=C1C=C(C#N)C#N)O)O

> <PUBCHEM_CACTVS_TPSA>
88

> <PUBCHEM_MONOISOTOPIC_WEIGHT>
186.043

> <PUBCHEM_TOTAL_CHARGE>
0

> <PUBCHEM_HEAVY_ATOM_COUNT>
14

> <PUBCHEM_ATOM_DEF_STEREO_COUNT>
0

> <PUBCHEM_ATOM_UDEF_STEREO_COUNT>
0

> <PUBCHEM_BOND_DEF_STEREO_COUNT>
0

> <PUBCHEM_BOND_UDEF_STEREO_COUNT>
0

> <PUBCHEM_ISOTOPIC_ATOM_COUNT>
0

> <PUBCHEM_COMPONENT_COUNT>
1

> <PUBCHEM_CACTVS_TAUTO_COUNT>
13

> <PUBCHEM_COORDINATE_TYPE>
1
5
255

> <PUBCHEM_BONDANNOTATIONS>
5  6  8
5  7  8
6  8  8
7  10  8
8  9  8
9  10  8

$$$$
44450546
  -OEChem-11021605012D

 36 39  0     1  0  0  0  0  0999 V2000
   10.2128    0.8142    0.0000 Br  0  0  0  0  0  0  0  0  0  0  0  0
    6.2619   -1.0200    0.0000 O   0  0  0  0  0  0  0  0  0  0  0  0
    6.3726    1.8493    0.0000 N   0  0  0  0  0  0  0  0  0  0  0  0
    4.6783   -1.8247    0.0000 N   0  0  0  0  0  0  0  0  0  0  0  0
    7.5675    0.7677    0.0000 C   0  0  0  0  0  0  0  0  0  0  0  0
    7.3613    1.7462    0.0000 C   0  0  0  0  0  0  0  0  0  0  0  0
    8.5180    0.4570    0.0000 C   0  0  0  0  0  0  0  0  0  0  0  0
    8.1056    2.4140    0.0000 C   0  0  0  0  0  0  0  0  0  0  0  0
    9.2623    1.1249    0.0000 C   0  0  3  0  0  0  0  0  0  0  0  0
    9.0561    2.1034    0.0000 C   0  0  0  0  0  0  0  0  0  0  0  0
    6.7044    0.2744    0.0000 C   0  0  0  0  0  0  0  0  0  0  0  0
    5.9674    0.9415    0.0000 C   0  0  0  0  0  0  0  0  0  0  0  0
    4.9889    0.7353    0.0000 C   0  0  0  0  0  0  0  0  0  0  0  0
    4.6783   -0.2153    0.0000 C   0  0  0  0  0  0  0  0  0  0  0  0
    3.7320   -0.5200    0.0000 C   0  0  0  0  0  0  0  0  0  0  0  0
    3.7320   -1.5200    0.0000 C   0  0  0  0  0  0  0  0  0  0  0  0
    5.2619   -1.0200    0.0000 C   0  0  0  0  0  0  0  0  0  0  0  0
    2.8660   -0.0200    0.0000 C   0  0  0  0  0  0  0  0  0  0  0  0
    2.8660   -2.0200    0.0000 C   0  0  0  0  0  0  0  0  0  0  0  0
    2.0000   -0.5200    0.0000 C   0  0  0  0  0  0  0  0  0  0  0  0
    2.0000   -1.5200    0.0000 C   0  0  0  0  0  0  0  0  0  0  0  0
    8.2260   -0.0899    0.0000 H   0  0  0  0  0  0  0  0  0  0  0  0
    9.0059    0.0745    0.0000 H   0  0  0  0  0  0  0  0  0  0  0  0
    8.3976    2.9610    0.0000 H   0  0  0  0  0  0  0  0  0  0  0  0
    7.6177    2.7966    0.0000 H   0  0  0  0  0  0  0  0  0  0  0  0
    9.7238    1.5390    0.0000 H   0  0  0  0  0  0  0  0  0  0  0  0
    9.6758    2.1239    0.0000 H   0  0  0  0  0  0  0  0  0  0  0  0
    9.1434    2.7172    0.0000 H   0  0  0  0  0  0  0  0  0  0  0  0
    6.6375   -0.3420    0.0000 H   0  0  0  0  0  0  0  0  0  0  0  0
    6.0626    2.3862    0.0000 H   0  0  0  0  0  0  0  0  0  0  0  0
    4.5749    1.1967    0.0000 H   0  0  0  0  0  0  0  0  0  0  0  0
    4.8709   -2.4140    0.0000 H   0  0  0  0  0  0  0  0  0  0  0  0
    2.8660    0.6000    0.0000 H   0  0  0  0  0  0  0  0  0  0  0  0
    2.8660   -2.6400    0.0000 H   0  0  0  0  0  0  0  0  0  0  0  0
    1.4631   -0.2100    0.0000 H   0  0  0  0  0  0  0  0  0  0  0  0
    1.4631   -1.8300    0.0000 H   0  0  0  0  0  0  0  0  0  0  0  0
  1  9  1  0  0  0  0
  2 17  2  0  0  0  0
  3  6  1  0  0  0  0
  3 12  1  0  0  0  0
  3 30  1  0  0  0  0
  4 16  1  0  0  0  0
  4 17  1  0  0  0  0
  4 32  1  0  0  0  0
  5  6  2  0  0  0  0
  5  7  1  0  0  0  0
  5 11  1  0  0  0  0
  6  8  1  0  0  0  0
  7  9  1  0  0  0  0
  7 22  1  0  0  0  0
  7 23  1  0  0  0  0
  8 10  1  0  0  0  0
  8 24  1  0  0  0  0
  8 25  1  0  0  0  0
  9 10  1  0  0  0  0
  9 26  1  0  0  0  0
 10 27  1  0  0  0  0
 10 28  1  0  0  0  0
 11 12  2  0  0  0  0
 11 29  1  0  0  0  0
 12 13  1  0  0  0  0
 13 14  2  0  0  0  0
 13 31  1  0  0  0  0
 14 15  1  0  0  0  0
 14 17  1  0  0  0  0
 15 16  1  0  0  0  0
 15 18  2  0  0  0  0
 16 19  2  0  0  0  0
 18 20  1  0  0  0  0
 18 33  1  0  0  0  0
 19 21  1  0  0  0  0
 19 34  1  0  0  0  0
 20 21  2  0  0  0  0
 20 35  1  0  0  0  0
 21 36  1  0  0  0  0
M  END
> <PUBCHEM_COMPOUND_CID>
44450546

> <PUBCHEM_COMPOUND_CANONICALIZED>
1

> <PUBCHEM_CACTVS_COMPLEXITY>
464

> <PUBCHEM_CACTVS_HBOND_ACCEPTOR>
1

> <PUBCHEM_CACTVS_HBOND_DONOR>
2

> <PUBCHEM_CACTVS_ROTATABLE_BOND>
1

> <PUBCHEM_CACTVS_SUBSKEYS>
AAADccB7IAAAEAAAAAAAAAAAAAAAAWLAAAAwYAAAAAAAAFgBwAAAHgBQAAABzAiBngAwwJLJkACoAyVyVACCgCAhAiAImSEwZPgIIPLAlZGEIAhglADIyZcciICOAAAAAAACAAAAAEAgAAQAAAAAAAAAAA==

> <PUBCHEM_IUPAC_OPENEYE_NAME>
(3Z)-3-[(5-bromo-4,5,6,7-tetrahydro-1H-indol-2-yl)methylene]indolin-2-one

> <PUBCHEM_IUPAC_CAS_NAME>
(3Z)-3-[(5-bromo-4,5,6,7-tetrahydro-1H-indol-2-yl)methylidene]-1H-indol-2-one

> <PUBCHEM_IUPAC_NAME>
(3Z)-3-[(5-bromo-4,5,6,7-tetrahydro-1H-indol-2-yl)methylidene]-1H-indol-2-one

> <PUBCHEM_IUPAC_SYSTEMATIC_NAME>
(3Z)-3-[(5-bromanyl-4,5,6,7-tetrahydro-1H-indol-2-yl)methylidene]-1H-indol-2-one

> <PUBCHEM_IUPAC_TRADITIONAL_NAME>
(3Z)-3-[(5-bromo-4,5,6,7-tetrahydro-1H-indol-2-yl)methylene]oxindole

> <PUBCHEM_IUPAC_INCHI>
InChI=1S/C17H15BrN2O/c18-11-5-6-15-10(7-11)8-12(19-15)9-14-13-3-1-2-4-16(13)20-17(14)21/h1-4,8-9,11,19H,5-7H2,(H,20,21)/b14-9-

> <PUBCHEM_IUPAC_INCHIKEY>
FIFWWQUQNGQSLH-ZROIWOOFSA-N

> <PUBCHEM_XLOGP3_AA>
3.2

> <PUBCHEM_EXACT_MASS>
342.037

> <PUBCHEM_MOLECULAR_FORMULA>
C17H15BrN2O

> <PUBCHEM_MOLECULAR_WEIGHT>
343.224

> <PUBCHEM_OPENEYE_CAN_SMILES>
C1CC2=C(CC1Br)C=C(N2)C=C3C4=CC=CC=C4NC3=O

> <PUBCHEM_OPENEYE_ISO_SMILES>
C1CC2=C(CC1Br)C=C(N2)/C=C\3/C4=CC=CC=C4NC3=O

> <PUBCHEM_CACTVS_TPSA>
44.9

> <PUBCHEM_MONOISOTOPIC_WEIGHT>
342.037

> <PUBCHEM_TOTAL_CHARGE>
0

> <PUBCHEM_HEAVY_ATOM_COUNT>
21

> <PUBCHEM_ATOM_DEF_STEREO_COUNT>
0

> <PUBCHEM_ATOM_UDEF_STEREO_COUNT>
1

> <PUBCHEM_BOND_DEF_STEREO_COUNT>
1

> <PUBCHEM_BOND_UDEF_STEREO_COUNT>
0

> <PUBCHEM_ISOTOPIC_ATOM_COUNT>
0

> <PUBCHEM_COMPONENT_COUNT>
1

> <PUBCHEM_CACTVS_TAUTO_COUNT>
7

> <PUBCHEM_COORDINATE_TYPE>
1
5
255

> <PUBCHEM_BONDANNOTATIONS>
9  1  3
11  12  8
15  16  8
15  18  8
16  19  8
18  20  8
19  21  8
20  21  8
3  12  8
3  6  8
5  11  8
5  6  8

$$$$
403661
  -OEChem-11021605012D

 47 48  0     0  0  0  0  0  0999 V2000
    2.8660    1.2694    0.0000 O   0  0  0  0  0  0  0  0  0  0  0  0
    4.5700   -2.0094    0.0000 O   0  0  0  0  0  0  0  0  0  0  0  0
    8.0902   -2.0094    0.0000 O   0  0  0  0  0  0  0  0  0  0  0  0
    4.5981    2.2694    0.0000 C   0  0  0  0  0  0  0  0  0  0  0  0
    2.8660   -0.7306    0.0000 C   0  0  0  0  0  0  0  0  0  0  0  0
    4.5981    1.2694    0.0000 C   0  0  0  0  0  0  0  0  0  0  0  0
    3.7320   -0.2306    0.0000 C   0  0  0  0  0  0  0  0  0  0  0  0
    3.7320    0.7694    0.0000 C   0  0  0  0  0  0  0  0  0  0  0  0
    5.4641    0.7694    0.0000 C   0  0  0  0  0  0  0  0  0  0  0  0
    4.5981   -0.7306    0.0000 C   0  0  0  0  0  0  0  0  0  0  0  0
    4.5981    3.2694    0.0000 C   0  0  0  0  0  0  0  0  0  0  0  0
    5.5981    2.2694    0.0000 C   0  0  0  0  0  0  0  0  0  0  0  0
    3.5981    2.2694    0.0000 C   0  0  0  0  0  0  0  0  0  0  0  0
    2.0000   -1.2306    0.0000 C   0  0  0  0  0  0  0  0  0  0  0  0
    3.3660   -1.5966    0.0000 C   0  0  0  0  0  0  0  0  0  0  0  0
    2.3660    0.1354    0.0000 C   0  0  0  0  0  0  0  0  0  0  0  0
    5.4641   -0.2306    0.0000 C   0  0  0  0  0  0  0  0  0  0  0  0
    6.3301   -0.7306    0.0000 C   0  0  0  0  0  0  0  0  0  0  0  0
    6.3301   -1.7306    0.0000 C   0  0  0  0  0  0  0  0  0  0  0  0
    5.5211   -2.3184    0.0000 C   0  0  0  0  0  0  0  0  0  0  0  0
    7.1391   -2.3184    0.0000 C   0  0  0  0  0  0  0  0  0  0  0  0
    5.8301   -3.2694    0.0000 C   0  0  0  0  0  0  0  0  0  0  0  0
    6.8301   -3.2694    0.0000 C   0  0  0  0  0  0  0  0  0  0  0  0
    6.0010    1.0794    0.0000 H   0  0  0  0  0  0  0  0  0  0  0  0
    4.5981   -1.3506    0.0000 H   0  0  0  0  0  0  0  0  0  0  0  0
    5.2181    3.2694    0.0000 H   0  0  0  0  0  0  0  0  0  0  0  0
    3.5981    2.8894    0.0000 H   0  0  0  0  0  0  0  0  0  0  0  0
    2.9781    2.2694    0.0000 H   0  0  0  0  0  0  0  0  0  0  0  0
    3.5981    1.6494    0.0000 H   0  0  0  0  0  0  0  0  0  0  0  0
    5.5981    1.6494    0.0000 H   0  0  0  0  0  0  0  0  0  0  0  0
    6.2181    2.2694    0.0000 H   0  0  0  0  0  0  0  0  0  0  0  0
    5.5981    2.8894    0.0000 H   0  0  0  0  0  0  0  0  0  0  0  0
    4.5981    3.8894    0.0000 H   0  0  0  0  0  0  0  0  0  0  0  0
    3.9781    3.2694    0.0000 H   0  0  0  0  0  0  0  0  0  0  0  0
    2.9030    0.4454    0.0000 H   0  0  0  0  0  0  0  0  0  0  0  0
    2.0560    0.6724    0.0000 H   0  0  0  0  0  0  0  0  0  0  0  0
    1.8291   -0.1746    0.0000 H   0  0  0  0  0  0  0  0  0  0  0  0
    2.8291   -1.9066    0.0000 H   0  0  0  0  0  0  0  0  0  0  0  0
    3.6760   -2.1335    0.0000 H   0  0  0  0  0  0  0  0  0  0  0  0
    3.9030   -1.2866    0.0000 H   0  0  0  0  0  0  0  0  0  0  0  0
    1.6900   -0.6936    0.0000 H   0  0  0  0  0  0  0  0  0  0  0  0
    1.4631   -1.5406    0.0000 H   0  0  0  0  0  0  0  0  0  0  0  0
    2.3100   -1.7675    0.0000 H   0  0  0  0  0  0  0  0  0  0  0  0
    6.8671   -0.4206    0.0000 H   0  0  0  0  0  0  0  0  0  0  0  0
    2.8660    1.8894    0.0000 H   0  0  0  0  0  0  0  0  0  0  0  0
    7.1946   -3.7710    0.0000 H   0  0  0  0  0  0  0  0  0  0  0  0
    5.4657   -3.7710    0.0000 H   0  0  0  0  0  0  0  0  0  0  0  0
  1  8  1  0  0  0  0
  1 45  1  0  0  0  0
  2 20  2  0  0  0  0
  3 21  2  0  0  0  0
  4  6  1  0  0  0  0
  4 11  1  0  0  0  0
  4 12  1  0  0  0  0
  4 13  1  0  0  0  0
  5  7  1  0  0  0  0
  5 14  1  0  0  0  0
  5 15  1  0  0  0  0
  5 16  1  0  0  0  0
  6  8  2  0  0  0  0
  6  9  1  0  0  0  0
  7  8  1  0  0  0  0
  7 10  2  0  0  0  0
  9 17  2  0  0  0  0
  9 24  1  0  0  0  0
 10 17  1  0  0  0  0
 10 25  1  0  0  0  0
 11 26  1  0  0  0  0
 11 33  1  0  0  0  0
 11 34  1  0  0  0  0
 12 30  1  0  0  0  0
 12 31  1  0  0  0  0
 12 32  1  0  0  0  0
 13 27  1  0  0  0  0
 13 28  1  0  0  0  0
 13 29  1  0  0  0  0
 14 41  1  0  0  0  0
 14 42  1  0  0  0  0
 14 43  1  0  0  0  0
 15 38  1  0  0  0  0
 15 39  1  0  0  0  0
 15 40  1  0  0  0  0
 16 35  1  0  0  0  0
 16 36  1  0  0  0  0
 16 37  1  0  0  0  0
 17 18  1  0  0  0  0
 18 19  2  0  0  0  0
 18 44  1  0  0  0  0
 19 20  1  0  0  0  0
 19 21  1  0  0  0  0
 20 22  1  0  0  0  0
 21 23  1  0  0  0  0
 22 23  2  0  0  0  0
 22 47  1  0  0  0  0
 23 46  1  0  0  0  0
M  END
> <PUBCHEM_COMPOUND_CID>
403661

> <PUBCHEM_COMPOUND_CANONICALIZED>
1

> <PUBCHEM_CACTVS_COMPLEXITY>
510

> <PUBCHEM_CACTVS_HBOND_ACCEPTOR>
3

> <PUBCHEM_CACTVS_HBOND_DONOR>
1

> <PUBCHEM_CACTVS_ROTATABLE_BOND>
3

> <PUBCHEM_CACTVS_SUBSKEYS>
AAADceB4MAAAAAAAAAAAAAAAAAAAAQAAAAAwAAAAAAAAAAABAAAAGgAACAAADgSAmAAyBoAAAgCIAqBSAAACAAAgIAAIiAEECMgIJjKKERKAcAAkwBEImYeAwOAPoAACAAAIAABAAAQAABAAAAAAAAAAAA==

> <PUBCHEM_IUPAC_OPENEYE_NAME>
2-[(3,5-ditert-butyl-4-hydroxy-phenyl)methylene]cyclopent-4-ene-1,3-dione

> <PUBCHEM_IUPAC_CAS_NAME>
2-[(3,5-ditert-butyl-4-hydroxyphenyl)methylidene]cyclopent-4-ene-1,3-dione

> <PUBCHEM_IUPAC_NAME>
2-[(3,5-ditert-butyl-4-hydroxyphenyl)methylidene]cyclopent-4-ene-1,3-dione

> <PUBCHEM_IUPAC_SYSTEMATIC_NAME>
2-[(3,5-ditert-butyl-4-oxidanyl-phenyl)methylidene]cyclopent-4-ene-1,3-dione

> <PUBCHEM_IUPAC_TRADITIONAL_NAME>
2-(3,5-ditert-butyl-4-hydroxy-benzylidene)cyclopent-4-ene-1,3-quinone

> <PUBCHEM_IUPAC_INCHI>
InChI=1S/C20H24O3/c1-19(2,3)14-10-12(9-13-16(21)7-8-17(13)22)11-15(18(14)23)20(4,5)6/h7-11,23H,1-6H3

> <PUBCHEM_IUPAC_INCHIKEY>
VUEUMQIBGLKJJD-UHFFFAOYSA-N

> <PUBCHEM_XLOGP3_AA>
5.1

> <PUBCHEM_EXACT_MASS>
312.173

> <PUBCHEM_MOLECULAR_FORMULA>
C20H24O3

> <PUBCHEM_MOLECULAR_WEIGHT>
312.409

> <PUBCHEM_OPENEYE_CAN_SMILES>
CC(C)(C)C1=CC(=CC(=C1O)C(C)(C)C)C=C2C(=O)C=CC2=O

> <PUBCHEM_OPENEYE_ISO_SMILES>
CC(C)(C)C1=CC(=CC(=C1O)C(C)(C)C)C=C2C(=O)C=CC2=O

> <PUBCHEM_CACTVS_TPSA>
54.4

> <PUBCHEM_MONOISOTOPIC_WEIGHT>
312.173

> <PUBCHEM_TOTAL_CHARGE>
0

> <PUBCHEM_HEAVY_ATOM_COUNT>
23

> <PUBCHEM_ATOM_DEF_STEREO_COUNT>
0

> <PUBCHEM_ATOM_UDEF_STEREO_COUNT>
0

> <PUBCHEM_BOND_DEF_STEREO_COUNT>
0

> <PUBCHEM_BOND_UDEF_STEREO_COUNT>
0

> <PUBCHEM_ISOTOPIC_ATOM_COUNT>
0

> <PUBCHEM_COMPONENT_COUNT>
1

> <PUBCHEM_CACTVS_TAUTO_COUNT>
5

> <PUBCHEM_COORDINATE_TYPE>
1
5
255

> <PUBCHEM_BONDANNOTATIONS>
10  17  8
6  8  8
6  9  8
7  10  8
7  8  8
9  17  8

$$$$
44450792
  -OEChem-11021605012D

 27 27  0     0  0  0  0  0  0999 V2000
    2.5369   -0.6550    0.0000 O   0  0  0  0  0  0  0  0  0  0  0  0
    6.8671   -3.1550    0.0000 O   0  0  0  0  0  0  0  0  0  0  0  0
    6.8671    2.8450    0.0000 O   0  0  0  0  0  0  0  0  0  0  0  0
    5.1350    2.8450    0.0000 O   0  0  0  0  0  0  0  0  0  0  0  0
    4.2690   -0.6550    0.0000 C   0  0  0  0  0  0  0  0  0  0  0  0
    5.1350   -0.1550    0.0000 C   0  0  0  0  0  0  0  0  0  0  0  0
    6.0010   -1.6550    0.0000 C   0  0  0  0  0  0  0  0  0  0  0  0
    6.0010   -0.6550    0.0000 C   0  0  0  0  0  0  0  0  0  0  0  0
    4.2690   -1.6550    0.0000 C   0  0  0  0  0  0  0  0  0  0  0  0
    5.1350   -2.1550    0.0000 C   0  0  0  0  0  0  0  0  0  0  0  0
    3.4030   -0.1550    0.0000 C   0  0  0  0  0  0  0  0  0  0  0  0
    6.8671   -2.1550    0.0000 C   0  0  0  0  0  0  0  0  0  0  0  0
    5.1350    0.8450    0.0000 C   0  0  0  0  0  0  0  0  0  0  0  0
    6.0010    1.3450    0.0000 C   0  0  0  0  0  0  0  0  0  0  0  0
    6.0010    2.3450    0.0000 C   0  0  0  0  0  0  0  0  0  0  0  0
    6.5380   -0.3450    0.0000 H   0  0  0  0  0  0  0  0  0  0  0  0
    3.7320   -1.9650    0.0000 H   0  0  0  0  0  0  0  0  0  0  0  0
    5.1350   -2.7750    0.0000 H   0  0  0  0  0  0  0  0  0  0  0  0
    3.8015    0.3199    0.0000 H   0  0  0  0  0  0  0  0  0  0  0  0
    3.0044    0.3199    0.0000 H   0  0  0  0  0  0  0  0  0  0  0  0
    7.4776   -2.2627    0.0000 H   0  0  0  0  0  0  0  0  0  0  0  0
    7.0791   -1.5724    0.0000 H   0  0  0  0  0  0  0  0  0  0  0  0
    4.5981    1.1550    0.0000 H   0  0  0  0  0  0  0  0  0  0  0  0
    6.5380    1.0350    0.0000 H   0  0  0  0  0  0  0  0  0  0  0  0
    2.0000   -0.3450    0.0000 H   0  0  0  0  0  0  0  0  0  0  0  0
    7.4040   -3.4650    0.0000 H   0  0  0  0  0  0  0  0  0  0  0  0
    6.8671    3.4650    0.0000 H   0  0  0  0  0  0  0  0  0  0  0  0
  1 11  1  0  0  0  0
  1 25  1  0  0  0  0
  2 12  1  0  0  0  0
  2 26  1  0  0  0  0
  3 15  1  0  0  0  0
  3 27  1  0  0  0  0
  4 15  2  0  0  0  0
  5  6  2  0  0  0  0
  5  9  1  0  0  0  0
  5 11  1  0  0  0  0
  6  8  1  0  0  0  0
  6 13  1  0  0  0  0
  7  8  2  0  0  0  0
  7 10  1  0  0  0  0
  7 12  1  0  0  0  0
  8 16  1  0  0  0  0
  9 10  2  0  0  0  0
  9 17  1  0  0  0  0
 10 18  1  0  0  0  0
 11 19  1  0  0  0  0
 11 20  1  0  0  0  0
 12 21  1  0  0  0  0
 12 22  1  0  0  0  0
 13 14  2  0  0  0  0
 13 23  1  0  0  0  0
 14 15  1  0  0  0  0
 14 24  1  0  0  0  0
M  END
> <PUBCHEM_COMPOUND_CID>
44450792

> <PUBCHEM_COMPOUND_CANONICALIZED>
1

> <PUBCHEM_CACTVS_COMPLEXITY>
237

> <PUBCHEM_CACTVS_HBOND_ACCEPTOR>
4

> <PUBCHEM_CACTVS_HBOND_DONOR>
3

> <PUBCHEM_CACTVS_ROTATABLE_BOND>
4

> <PUBCHEM_CACTVS_SUBSKEYS>
AAADccBwOAAAAAAAAAAAAAAAAAAAAAAAAAAwAAAAAAAAAAABAAAAGgAACAAADACgmAIwCIAAAgCIAiDSCAACAAAgAAAIiAAACMgINiKAERCAcAAkwAEImYeAwPAOwAACAAAQAACAAAQAACAAAAAAAAAAAA==

> <PUBCHEM_IUPAC_OPENEYE_NAME>
(E)-3-[2,5-bis(hydroxymethyl)phenyl]prop-2-enoic acid

> <PUBCHEM_IUPAC_CAS_NAME>
(E)-3-[2,5-bis(hydroxymethyl)phenyl]-2-propenoic acid

> <PUBCHEM_IUPAC_NAME>
(E)-3-[2,5-bis(hydroxymethyl)phenyl]prop-2-enoic acid

> <PUBCHEM_IUPAC_SYSTEMATIC_NAME>
(E)-3-[2,5-bis(hydroxymethyl)phenyl]prop-2-enoic acid

> <PUBCHEM_IUPAC_TRADITIONAL_NAME>
(E)-3-(2,5-dimethylolphenyl)acrylic acid

> <PUBCHEM_IUPAC_INCHI>
InChI=1S/C11H12O4/c12-6-8-1-2-10(7-13)9(5-8)3-4-11(14)15/h1-5,12-13H,6-7H2,(H,14,15)/b4-3+

> <PUBCHEM_IUPAC_INCHIKEY>
VZNOANOBLUQMFL-ONEGZZNKSA-N

> <PUBCHEM_XLOGP3_AA>
0.1

> <PUBCHEM_EXACT_MASS>
208.074

> <PUBCHEM_MOLECULAR_FORMULA>
C11H12O4

> <PUBCHEM_MOLECULAR_WEIGHT>
208.213

> <PUBCHEM_OPENEYE_CAN_SMILES>
C1=CC(=C(C=C1CO)C=CC(=O)O)CO

> <PUBCHEM_OPENEYE_ISO_SMILES>
C1=CC(=C(C=C1CO)/C=C/C(=O)O)CO

> <PUBCHEM_CACTVS_TPSA>
77.8

> <PUBCHEM_MONOISOTOPIC_WEIGHT>
208.074

> <PUBCHEM_TOTAL_CHARGE>
0

> <PUBCHEM_HEAVY_ATOM_COUNT>
15

> <PUBCHEM_ATOM_DEF_STEREO_COUNT>
0

> <PUBCHEM_ATOM_UDEF_STEREO_COUNT>
0

> <PUBCHEM_BOND_DEF_STEREO_COUNT>
1

> <PUBCHEM_BOND_UDEF_STEREO_COUNT>
0

> <PUBCHEM_ISOTOPIC_ATOM_COUNT>
0

> <PUBCHEM_COMPONENT_COUNT>
1

> <PUBCHEM_CACTVS_TAUTO_COUNT>
1

> <PUBCHEM_COORDINATE_TYPE>
1
5
255

> <PUBCHEM_BONDANNOTATIONS>
5  6  8
5  9  8
6  8  8
7  10  8
7  8  8
9  10  8

$$$$
5730
  -OEChem-11021605012D

 52 54  0     0  0  0  0  0  0999 V2000
    7.1962   -3.9050    0.0000 O   0  0  0  0  0  0  0  0  0  0  0  0
    6.3301    0.5950    0.0000 O   0  0  0  0  0  0  0  0  0  0  0  0
    7.1962    5.0950    0.0000 O   0  0  0  0  0  0  0  0  0  0  0  0
    6.3301   -2.4050    0.0000 N   0  0  0  0  0  0  0  0  0  0  0  0
    2.8660   -3.4050    0.0000 N   0  0  0  0  0  0  0  0  0  0  0  0
    8.0622    0.5950    0.0000 N   0  0  0  0  0  0  0  0  0  0  0  0
    8.0622   -0.4050    0.0000 C   0  0  0  0  0  0  0  0  0  0  0  0
    8.9282   -0.9050    0.0000 C   0  0  0  0  0  0  0  0  0  0  0  0
    7.1962   -1.9050    0.0000 C   0  0  0  0  0  0  0  0  0  0  0  0
    7.1962   -0.9050    0.0000 C   0  0  0  0  0  0  0  0  0  0  0  0
    5.4641   -3.9050    0.0000 C   0  0  0  0  0  0  0  0  0  0  0  0
    3.7320   -3.9050    0.0000 C   0  0  0  0  0  0  0  0  0  0  0  0
    8.9282   -1.9050    0.0000 C   0  0  0  0  0  0  0  0  0  0  0  0
    8.0622   -2.4050    0.0000 C   0  0  0  0  0  0  0  0  0  0  0  0
    4.5981   -3.4050    0.0000 C   0  0  0  0  0  0  0  0  0  0  0  0
    6.3301   -3.4050    0.0000 C   0  0  0  0  0  0  0  0  0  0  0  0
    9.7942   -0.4050    0.0000 C   0  0  0  0  0  0  0  0  0  0  0  0
    5.4641   -4.9050    0.0000 C   0  0  0  0  0  0  0  0  0  0  0  0
    3.7320   -4.9050    0.0000 C   0  0  0  0  0  0  0  0  0  0  0  0
    4.5981   -5.4050    0.0000 C   0  0  0  0  0  0  0  0  0  0  0  0
    7.1962    1.0950    0.0000 C   0  0  0  0  0  0  0  0  0  0  0  0
    7.1962    2.0950    0.0000 C   0  0  0  0  0  0  0  0  0  0  0  0
    2.0000   -3.9050    0.0000 C   0  0  0  0  0  0  0  0  0  0  0  0
    2.8660   -2.4050    0.0000 C   0  0  0  0  0  0  0  0  0  0  0  0
    8.0622    2.5950    0.0000 C   0  0  0  0  0  0  0  0  0  0  0  0
    6.3301    2.5950    0.0000 C   0  0  0  0  0  0  0  0  0  0  0  0
    8.0622    3.5950    0.0000 C   0  0  0  0  0  0  0  0  0  0  0  0
    6.3301    3.5950    0.0000 C   0  0  0  0  0  0  0  0  0  0  0  0
    7.1962    4.0950    0.0000 C   0  0  0  0  0  0  0  0  0  0  0  0
    6.6592   -0.5950    0.0000 H   0  0  0  0  0  0  0  0  0  0  0  0
    9.4651   -2.2150    0.0000 H   0  0  0  0  0  0  0  0  0  0  0  0
    8.0622   -3.0250    0.0000 H   0  0  0  0  0  0  0  0  0  0  0  0
    5.7932   -2.0950    0.0000 H   0  0  0  0  0  0  0  0  0  0  0  0
    4.5981   -2.7850    0.0000 H   0  0  0  0  0  0  0  0  0  0  0  0
    8.5991    0.9050    0.0000 H   0  0  0  0  0  0  0  0  0  0  0  0
   10.1042   -0.9419    0.0000 H   0  0  0  0  0  0  0  0  0  0  0  0
   10.3312   -0.0950    0.0000 H   0  0  0  0  0  0  0  0  0  0  0  0
    9.4842    0.1319    0.0000 H   0  0  0  0  0  0  0  0  0  0  0  0
    3.1951   -5.2150    0.0000 H   0  0  0  0  0  0  0  0  0  0  0  0
    6.0010   -5.2150    0.0000 H   0  0  0  0  0  0  0  0  0  0  0  0
    4.5981   -6.0250    0.0000 H   0  0  0  0  0  0  0  0  0  0  0  0
    1.6900   -3.3681    0.0000 H   0  0  0  0  0  0  0  0  0  0  0  0
    1.4631   -4.2150    0.0000 H   0  0  0  0  0  0  0  0  0  0  0  0
    2.3100   -4.4419    0.0000 H   0  0  0  0  0  0  0  0  0  0  0  0
    3.4860   -2.4050    0.0000 H   0  0  0  0  0  0  0  0  0  0  0  0
    2.8660   -1.7850    0.0000 H   0  0  0  0  0  0  0  0  0  0  0  0
    2.2460   -2.4050    0.0000 H   0  0  0  0  0  0  0  0  0  0  0  0
    8.5991    2.2850    0.0000 H   0  0  0  0  0  0  0  0  0  0  0  0
    5.7932    2.2850    0.0000 H   0  0  0  0  0  0  0  0  0  0  0  0
    8.5991    3.9050    0.0000 H   0  0  0  0  0  0  0  0  0  0  0  0
    5.7932    3.9050    0.0000 H   0  0  0  0  0  0  0  0  0  0  0  0
    6.6592    5.4050    0.0000 H   0  0  0  0  0  0  0  0  0  0  0  0
  1 16  2  0  0  0  0
  2 21  2  0  0  0  0
  3 29  1  0  0  0  0
  3 52  1  0  0  0  0
  4  9  1  0  0  0  0
  4 16  1  0  0  0  0
  4 33  1  0  0  0  0
  5 12  1  0  0  0  0
  5 23  1  0  0  0  0
  5 24  1  0  0  0  0
  6  7  1  0  0  0  0
  6 21  1  0  0  0  0
  6 35  1  0  0  0  0
  7  8  2  0  0  0  0
  7 10  1  0  0  0  0
  8 13  1  0  0  0  0
  8 17  1  0  0  0  0
  9 10  2  0  0  0  0
  9 14  1  0  0  0  0
 10 30  1  0  0  0  0
 11 15  2  0  0  0  0
 11 16  1  0  0  0  0
 11 18  1  0  0  0  0
 12 15  1  0  0  0  0
 12 19  2  0  0  0  0
 13 14  2  0  0  0  0
 13 31  1  0  0  0  0
 14 32  1  0  0  0  0
 15 34  1  0  0  0  0
 17 36  1  0  0  0  0
 17 37  1  0  0  0  0
 17 38  1  0  0  0  0
 18 20  2  0  0  0  0
 18 40  1  0  0  0  0
 19 20  1  0  0  0  0
 19 39  1  0  0  0  0
 20 41  1  0  0  0  0
 21 22  1  0  0  0  0
 22 25  2  0  0  0  0
 22 26  1  0  0  0  0
 23 42  1  0  0  0  0
 23 43  1  0  0  0  0
 23 44  1  0  0  0  0
 24 45  1  0  0  0  0
 24 46  1  0  0  0  0
 24 47  1  0  0  0  0
 25 27  1  0  0  0  0
 25 48  1  0  0  0  0
 26 28  2  0  0  0  0
 26 49  1  0  0  0  0
 27 29  2  0  0  0  0
 27 50  1  0  0  0  0
 28 29  1  0  0  0  0
 28 51  1  0  0  0  0
M  END
> <PUBCHEM_COMPOUND_CID>
5730

> <PUBCHEM_COMPOUND_CANONICALIZED>
1

> <PUBCHEM_CACTVS_COMPLEXITY>
560

> <PUBCHEM_CACTVS_HBOND_ACCEPTOR>
4

> <PUBCHEM_CACTVS_HBOND_DONOR>
3

> <PUBCHEM_CACTVS_ROTATABLE_BOND>
5

> <PUBCHEM_CACTVS_SUBSKEYS>
AAADceB7MAAAAAAAAAAAAAAAAAAAAAAAAAAwYMAAAAAAAAABUAAAHgAQCAAADAyBmAQyxoPAAgCIAiVSUACCAAAlIgAIiAEObMgIJjLC1dOEcQhk1BHI2Yec3ALOKAAAQAQCAABQAACACAQAAAAAAAAAAA==

> <PUBCHEM_IUPAC_OPENEYE_NAME>
3-(dimethylamino)-N-[3-[(4-hydroxybenzoyl)amino]-4-methyl-phenyl]benzamide

> <PUBCHEM_IUPAC_CAS_NAME>
3-(dimethylamino)-N-[3-[[(4-hydroxyphenyl)-oxomethyl]amino]-4-methylphenyl]benzamide

> <PUBCHEM_IUPAC_NAME>
3-(dimethylamino)-N-[3-[(4-hydroxybenzoyl)amino]-4-methylphenyl]benzamide

> <PUBCHEM_IUPAC_SYSTEMATIC_NAME>
3-(dimethylamino)-N-[3-[(4-hydroxyphenyl)carbonylamino]-4-methyl-phenyl]benzamide

> <PUBCHEM_IUPAC_TRADITIONAL_NAME>
3-(dimethylamino)-N-[3-[(4-hydroxybenzoyl)amino]-4-methyl-phenyl]benzamide

> <PUBCHEM_IUPAC_INCHI>
InChI=1S/C23H23N3O3/c1-15-7-10-18(24-23(29)17-5-4-6-19(13-17)26(2)3)14-21(15)25-22(28)16-8-11-20(27)12-9-16/h4-14,27H,1-3H3,(H,24,29)(H,25,28)

> <PUBCHEM_IUPAC_INCHIKEY>
PYEFPDQFAZNXLI-UHFFFAOYSA-N

> <PUBCHEM_XLOGP3_AA>
3.7

> <PUBCHEM_EXACT_MASS>
389.174

> <PUBCHEM_MOLECULAR_FORMULA>
C23H23N3O3

> <PUBCHEM_MOLECULAR_WEIGHT>
389.455

> <PUBCHEM_OPENEYE_CAN_SMILES>
CC1=C(C=C(C=C1)NC(=O)C2=CC(=CC=C2)N(C)C)NC(=O)C3=CC=C(C=C3)O

> <PUBCHEM_OPENEYE_ISO_SMILES>
CC1=C(C=C(C=C1)NC(=O)C2=CC(=CC=C2)N(C)C)NC(=O)C3=CC=C(C=C3)O

> <PUBCHEM_CACTVS_TPSA>
81.7

> <PUBCHEM_MONOISOTOPIC_WEIGHT>
389.174

> <PUBCHEM_TOTAL_CHARGE>
0

> <PUBCHEM_HEAVY_ATOM_COUNT>
29

> <PUBCHEM_ATOM_DEF_STEREO_COUNT>
0

> <PUBCHEM_ATOM_UDEF_STEREO_COUNT>
0

> <PUBCHEM_BOND_DEF_STEREO_COUNT>
0

> <PUBCHEM_BOND_UDEF_STEREO_COUNT>
0

> <PUBCHEM_ISOTOPIC_ATOM_COUNT>
0

> <PUBCHEM_COMPONENT_COUNT>
1

> <PUBCHEM_CACTVS_TAUTO_COUNT>
14

> <PUBCHEM_COORDINATE_TYPE>
1
5
255

> <PUBCHEM_BONDANNOTATIONS>
11  15  8
11  18  8
12  15  8
12  19  8
13  14  8
18  20  8
19  20  8
22  25  8
22  26  8
25  27  8
26  28  8
27  29  8
28  29  8
7  10  8
7  8  8
8  13  8
9  10  8
9  14  8

$$$$
45263786
  -OEChem-11021605012D

 41 41  0     0  0  0  0  0  0999 V2000
    9.4651    3.9650    0.0000 Cl  0  0  0  0  0  0  0  0  0  0  0  0
    7.4651    5.3100    0.0000 F   0  0  0  0  0  0  0  0  0  0  0  0
    7.0991    6.6760    0.0000 F   0  0  0  0  0  0  0  0  0  0  0  0
    6.0991    4.9440    0.0000 F   0  0  0  0  0  0  0  0  0  0  0  0
    1.4030    5.8100    0.0000 O   0  0  0  0  0  0  0  0  0  0  0  0
    3.1350    5.8100    0.0000 N   0  0  0  0  0  0  0  0  0  0  0  0
    4.8671    2.8100    0.0000 N   0  0  0  0  0  0  0  0  0  0  0  0
    4.0010    4.3100    0.0000 N   0  0  0  0  0  0  0  0  0  0  0  0
    3.1350    2.8100    0.0000 N   0  0  0  0  0  0  0  0  0  0  0  0
    5.7331    0.3100    0.0000 N   0  0  0  0  0  0  0  0  0  0  0  0
    0.5369    4.3100    0.0000 N   0  0  0  0  0  0  0  0  0  0  0  0
    4.0010    6.3100    0.0000 C   0  0  0  0  0  0  0  0  0  0  0  0
    3.1350    4.8100    0.0000 C   0  0  0  0  0  0  0  0  0  0  0  0
    5.7331    6.3100    0.0000 C   0  0  0  0  0  0  0  0  0  0  0  0
    4.8671    5.8100    0.0000 C   0  0  0  0  0  0  0  0  0  0  0  0
    4.8671    1.8100    0.0000 C   0  0  0  0  0  0  0  0  0  0  0  0
    2.2690    4.3100    0.0000 C   0  0  0  0  0  0  0  0  0  0  0  0
    4.0010    3.3100    0.0000 C   0  0  0  0  0  0  0  0  0  0  0  0
    4.0010    7.3100    0.0000 C   0  0  0  0  0  0  0  0  0  0  0  0
    5.7331    1.3100    0.0000 C   0  0  0  0  0  0  0  0  0  0  0  0
    5.7331    7.3100    0.0000 C   0  0  0  0  0  0  0  0  0  0  0  0
    4.8671    7.8100    0.0000 C   0  0  0  0  0  0  0  0  0  0  0  0
    2.2690    3.3100    0.0000 C   0  0  0  0  0  0  0  0  0  0  0  0
    6.5991    5.8100    0.0000 C   0  0  0  0  0  0  0  0  0  0  0  0
    1.4030    4.8100    0.0000 C   0  0  0  0  0  0  0  0  0  0  0  0
    2.5981    6.1200    0.0000 H   0  0  0  0  0  0  0  0  0  0  0  0
    4.8671    5.1900    0.0000 H   0  0  0  0  0  0  0  0  0  0  0  0
    4.2565    1.9177    0.0000 H   0  0  0  0  0  0  0  0  0  0  0  0
    4.6550    1.2274    0.0000 H   0  0  0  0  0  0  0  0  0  0  0  0
    3.4641    7.6200    0.0000 H   0  0  0  0  0  0  0  0  0  0  0  0
    5.4040    3.1200    0.0000 H   0  0  0  0  0  0  0  0  0  0  0  0
    6.3437    1.2023    0.0000 H   0  0  0  0  0  0  0  0  0  0  0  0
    5.9451    1.8926    0.0000 H   0  0  0  0  0  0  0  0  0  0  0  0
    6.2700    7.6200    0.0000 H   0  0  0  0  0  0  0  0  0  0  0  0
    4.8671    8.4300    0.0000 H   0  0  0  0  0  0  0  0  0  0  0  0
    1.7320    3.0000    0.0000 H   0  0  0  0  0  0  0  0  0  0  0  0
    6.2700    0.0000    0.0000 H   0  0  0  0  0  0  0  0  0  0  0  0
    5.1962    0.0000    0.0000 H   0  0  0  0  0  0  0  0  0  0  0  0
    0.0000    4.6200    0.0000 H   0  0  0  0  0  0  0  0  0  0  0  0
    0.5369    3.6900    0.0000 H   0  0  0  0  0  0  0  0  0  0  0  0
   10.4651    3.9650    0.0000 H   0  0  0  0  0  0  0  0  0  0  0  0
  1 41  1  0  0  0  0
  2 24  1  0  0  0  0
  3 24  1  0  0  0  0
  4 24  1  0  0  0  0
  5 25  2  0  0  0  0
  6 12  1  0  0  0  0
  6 13  1  0  0  0  0
  6 26  1  0  0  0  0
  7 16  1  0  0  0  0
  7 18  1  0  0  0  0
  7 31  1  0  0  0  0
  8 13  2  0  0  0  0
  8 18  1  0  0  0  0
  9 18  2  0  0  0  0
  9 23  1  0  0  0  0
 10 20  1  0  0  0  0
 10 37  1  0  0  0  0
 10 38  1  0  0  0  0
 11 25  1  0  0  0  0
 11 39  1  0  0  0  0
 11 40  1  0  0  0  0
 12 15  1  0  0  0  0
 12 19  2  0  0  0  0
 13 17  1  0  0  0  0
 14 15  2  0  0  0  0
 14 21  1  0  0  0  0
 14 24  1  0  0  0  0
 15 27  1  0  0  0  0
 16 20  1  0  0  0  0
 16 28  1  0  0  0  0
 16 29  1  0  0  0  0
 17 23  2  0  0  0  0
 17 25  1  0  0  0  0
 19 22  1  0  0  0  0
 19 30  1  0  0  0  0
 20 32  1  0  0  0  0
 20 33  1  0  0  0  0
 21 22  2  0  0  0  0
 21 34  1  0  0  0  0
 22 35  1  0  0  0  0
 23 36  1  0  0  0  0
M  END
> <PUBCHEM_COMPOUND_CID>
45263786

> <PUBCHEM_COMPOUND_CANONICALIZED>
1

> <PUBCHEM_CACTVS_COMPLEXITY>
422

> <PUBCHEM_CACTVS_HBOND_ACCEPTOR>
9

> <PUBCHEM_CACTVS_HBOND_DONOR>
5

> <PUBCHEM_CACTVS_ROTATABLE_BOND>
6

> <PUBCHEM_CACTVS_SUBSKEYS>
AAADceBzoYAEAAAAAAAAAAAAAAAAAAAAAAA8QAAAAAAAAAABwAAAHwAQAAAADAjBmhQ98JbIEACoAjd3dACCgCk1AqAJ2KEoZNiIaOrA2dGUJIhokALIyOcQgAAOAAAAQAAAAAAAAACAAAAAAAAAAAAAAA==

> <PUBCHEM_IUPAC_OPENEYE_NAME>
2-(2-aminoethylamino)-4-[3-(trifluoromethyl)anilino]pyrimidine-5-carboxamide;hydrochloride

> <PUBCHEM_IUPAC_CAS_NAME>
2-(2-aminoethylamino)-4-[3-(trifluoromethyl)anilino]-5-pyrimidinecarboxamide;hydrochloride

> <PUBCHEM_IUPAC_NAME>
2-(2-aminoethylamino)-4-[3-(trifluoromethyl)anilino]pyrimidine-5-carboxamide;hydrochloride

> <PUBCHEM_IUPAC_SYSTEMATIC_NAME>
2-(2-azanylethylamino)-4-[[3-(trifluoromethyl)phenyl]amino]pyrimidine-5-carboxamide;hydrochloride

> <PUBCHEM_IUPAC_TRADITIONAL_NAME>
2-(2-aminoethylamino)-4-[3-(trifluoromethyl)anilino]pyrimidine-5-carboxamide;hydrochloride

> <PUBCHEM_IUPAC_INCHI>
InChI=1S/C14H15F3N6O.ClH/c15-14(16,17)8-2-1-3-9(6-8)22-12-10(11(19)24)7-21-13(23-12)20-5-4-18;/h1-3,6-7H,4-5,18H2,(H2,19,24)(H2,20,21,22,23);1H

> <PUBCHEM_IUPAC_INCHIKEY>
PVURZQHSTKFHCH-UHFFFAOYSA-N

> <PUBCHEM_EXACT_MASS>
376.103

> <PUBCHEM_MOLECULAR_FORMULA>
C14H16ClF3N6O

> <PUBCHEM_MOLECULAR_WEIGHT>
376.768

> <PUBCHEM_OPENEYE_CAN_SMILES>
C1=CC(=CC(=C1)NC2=NC(=NC=C2C(=O)N)NCCN)C(F)(F)F.Cl

> <PUBCHEM_OPENEYE_ISO_SMILES>
C1=CC(=CC(=C1)NC2=NC(=NC=C2C(=O)N)NCCN)C(F)(F)F.Cl

> <PUBCHEM_CACTVS_TPSA>
119

> <PUBCHEM_MONOISOTOPIC_WEIGHT>
376.103

> <PUBCHEM_TOTAL_CHARGE>
0

> <PUBCHEM_HEAVY_ATOM_COUNT>
25

> <PUBCHEM_ATOM_DEF_STEREO_COUNT>
0

> <PUBCHEM_ATOM_UDEF_STEREO_COUNT>
0

> <PUBCHEM_BOND_DEF_STEREO_COUNT>
0

> <PUBCHEM_BOND_UDEF_STEREO_COUNT>
0

> <PUBCHEM_ISOTOPIC_ATOM_COUNT>
0

> <PUBCHEM_COMPONENT_COUNT>
2

> <PUBCHEM_CACTVS_TAUTO_COUNT>
21

> <PUBCHEM_COORDINATE_TYPE>
1
5
255

> <PUBCHEM_BONDANNOTATIONS>
12  15  8
12  19  8
13  17  8
14  15  8
14  21  8
17  23  8
19  22  8
21  22  8
8  13  8
8  18  8
9  18  8
9  23  8

$$$$
5280343
  -OEChem-11021605012D

 32 34  0     0  0  0  0  0  0999 V2000
    6.0682   -0.2704    0.0000 O   0  0  0  0  0  0  0  0  0  0  0  0
    7.8003    1.7296    0.0000 O   0  0  0  0  0  0  0  0  0  0  0  0
    4.3198    2.7642    0.0000 O   0  0  0  0  0  0  0  0  0  0  0  0
    6.0682    2.7296    0.0000 O   0  0  0  0  0  0  0  0  0  0  0  0
    2.5381   -0.2945    0.0000 O   0  0  0  0  0  0  0  0  0  0  0  0
    8.6663   -2.7704    0.0000 O   0  0  0  0  0  0  0  0  0  0  0  0
   10.3984   -1.7704    0.0000 O   0  0  0  0  0  0  0  0  0  0  0  0
    5.2022    1.2296    0.0000 C   0  0  0  0  0  0  0  0  0  0  0  0
    5.2022    0.2296    0.0000 C   0  0  0  0  0  0  0  0  0  0  0  0
    6.9343    0.2296    0.0000 C   0  0  0  0  0  0  0  0  0  0  0  0
    7.8003   -0.2704    0.0000 C   0  0  0  0  0  0  0  0  0  0  0  0
    6.9343    1.2296    0.0000 C   0  0  0  0  0  0  0  0  0  0  0  0
    6.0682    1.7296    0.0000 C   0  0  0  0  0  0  0  0  0  0  0  0
    4.3083    1.7643    0.0000 C   0  0  0  0  0  0  0  0  0  0  0  0
    4.3083   -0.3051    0.0000 C   0  0  0  0  0  0  0  0  0  0  0  0
    3.4022    0.2088    0.0000 C   0  0  0  0  0  0  0  0  0  0  0  0
    7.8003   -1.2704    0.0000 C   0  0  0  0  0  0  0  0  0  0  0  0
    3.4022    1.2504    0.0000 C   0  0  0  0  0  0  0  0  0  0  0  0
    8.6663    0.2296    0.0000 C   0  0  0  0  0  0  0  0  0  0  0  0
    8.6663   -1.7704    0.0000 C   0  0  0  0  0  0  0  0  0  0  0  0
    9.5323   -0.2704    0.0000 C   0  0  0  0  0  0  0  0  0  0  0  0
    9.5323   -1.2704    0.0000 C   0  0  0  0  0  0  0  0  0  0  0  0
    4.3154   -0.9250    0.0000 H   0  0  0  0  0  0  0  0  0  0  0  0
    7.2634   -1.5804    0.0000 H   0  0  0  0  0  0  0  0  0  0  0  0
    2.8665    1.5625    0.0000 H   0  0  0  0  0  0  0  0  0  0  0  0
    8.6663    0.8496    0.0000 H   0  0  0  0  0  0  0  0  0  0  0  0
   10.0693    0.0396    0.0000 H   0  0  0  0  0  0  0  0  0  0  0  0
    7.8003    2.3496    0.0000 H   0  0  0  0  0  0  0  0  0  0  0  0
    3.7865    3.0804    0.0000 H   0  0  0  0  0  0  0  0  0  0  0  0
    2.0000    0.0134    0.0000 H   0  0  0  0  0  0  0  0  0  0  0  0
    8.1294   -3.0804    0.0000 H   0  0  0  0  0  0  0  0  0  0  0  0
   10.9353   -1.4604    0.0000 H   0  0  0  0  0  0  0  0  0  0  0  0
  1  9  1  0  0  0  0
  1 10  1  0  0  0  0
  2 12  1  0  0  0  0
  2 28  1  0  0  0  0
  3 14  1  0  0  0  0
  3 29  1  0  0  0  0
  4 13  2  0  0  0  0
  5 16  1  0  0  0  0
  5 30  1  0  0  0  0
  6 20  1  0  0  0  0
  6 31  1  0  0  0  0
  7 22  1  0  0  0  0
  7 32  1  0  0  0  0
  8  9  1  0  0  0  0
  8 13  1  0  0  0  0
  8 14  2  0  0  0  0
  9 15  2  0  0  0  0
 10 11  1  0  0  0  0
 10 12  2  0  0  0  0
 11 17  2  0  0  0  0
 11 19  1  0  0  0  0
 12 13  1  0  0  0  0
 14 18  1  0  0  0  0
 15 16  1  0  0  0  0
 15 23  1  0  0  0  0
 16 18  2  0  0  0  0
 17 20  1  0  0  0  0
 17 24  1  0  0  0  0
 18 25  1  0  0  0  0
 19 21  2  0  0  0  0
 19 26  1  0  0  0  0
 20 22  2  0  0  0  0
 21 22  1  0  0  0  0
 21 27  1  0  0  0  0
M  END
> <PUBCHEM_COMPOUND_CID>
5280343

> <PUBCHEM_COMPOUND_CANONICALIZED>
1

> <PUBCHEM_CACTVS_COMPLEXITY>
488

> <PUBCHEM_CACTVS_HBOND_ACCEPTOR>
7

> <PUBCHEM_CACTVS_HBOND_DONOR>
5

> <PUBCHEM_CACTVS_ROTATABLE_BOND>
1

> <PUBCHEM_CACTVS_SUBSKEYS>
AAADccBwOAAAAAAAAAAAAAAAAAAAAAAAAAAwYIAAAAAAAACBQAAAGgAACAAADASAmAAwBoAABgCIAqBSAAICCAAkIAAIiAFGiMgNJzaGNRqCeWGl4BUJuQfI7LzOIAABCAAIQABAAAIQABCAAAAAAAAAAA==

> <PUBCHEM_IUPAC_OPENEYE_NAME>
2-(3,4-dihydroxyphenyl)-3,5,7-trihydroxy-chromen-4-one

> <PUBCHEM_IUPAC_CAS_NAME>
2-(3,4-dihydroxyphenyl)-3,5,7-trihydroxy-1-benzopyran-4-one

> <PUBCHEM_IUPAC_NAME>
2-(3,4-dihydroxyphenyl)-3,5,7-trihydroxychromen-4-one

> <PUBCHEM_IUPAC_SYSTEMATIC_NAME>
2-[3,4-bis(oxidanyl)phenyl]-3,5,7-tris(oxidanyl)chromen-4-one

> <PUBCHEM_IUPAC_TRADITIONAL_NAME>
2-(3,4-dihydroxyphenyl)-3,5,7-trihydroxy-chromone

> <PUBCHEM_IUPAC_INCHI>
InChI=1S/C15H10O7/c16-7-4-10(19)12-11(5-7)22-15(14(21)13(12)20)6-1-2-8(17)9(18)3-6/h1-5,16-19,21H

> <PUBCHEM_IUPAC_INCHIKEY>
REFJWTPEDVJJIY-UHFFFAOYSA-N

> <PUBCHEM_XLOGP3>
1.5

> <PUBCHEM_EXACT_MASS>
302.043

> <PUBCHEM_MOLECULAR_FORMULA>
C15H10O7

> <PUBCHEM_MOLECULAR_WEIGHT>
302.238

> <PUBCHEM_OPENEYE_CAN_SMILES>
C1=CC(=C(C=C1C2=C(C(=O)C3=C(C=C(C=C3O2)O)O)O)O)O

> <PUBCHEM_OPENEYE_ISO_SMILES>
C1=CC(=C(C=C1C2=C(C(=O)C3=C(C=C(C=C3O2)O)O)O)O)O

> <PUBCHEM_CACTVS_TPSA>
127

> <PUBCHEM_MONOISOTOPIC_WEIGHT>
302.043

> <PUBCHEM_TOTAL_CHARGE>
0

> <PUBCHEM_HEAVY_ATOM_COUNT>
22

> <PUBCHEM_ATOM_DEF_STEREO_COUNT>
0

> <PUBCHEM_ATOM_UDEF_STEREO_COUNT>
0

> <PUBCHEM_BOND_DEF_STEREO_COUNT>
0

> <PUBCHEM_BOND_UDEF_STEREO_COUNT>
0

> <PUBCHEM_ISOTOPIC_ATOM_COUNT>
0

> <PUBCHEM_COMPONENT_COUNT>
1

> <PUBCHEM_CACTVS_TAUTO_COUNT>
174

> <PUBCHEM_COORDINATE_TYPE>
1
5
255

> <PUBCHEM_BONDANNOTATIONS>
1  10  8
1  9  8
10  12  8
11  17  8
11  19  8
12  13  8
14  18  8
15  16  8
16  18  8
17  20  8
19  21  8
20  22  8
21  22  8
8  13  8
8  14  8
8  9  8
9  15  8

$$$$
44450803
  -OEChem-11021605012D

 51 54  0     1  0  0  0  0  0999 V2000
    6.5841    3.1550    0.0000 Cl  0  0  0  0  0  0  0  0  0  0  0  0
    4.8520    0.1550    0.0000 N   0  0  0  0  0  0  0  0  0  0  0  0
    2.6200    1.0210    0.0000 N   0  0  0  0  0  0  0  0  0  0  0  0
    6.5841    0.1550    0.0000 N   0  0  0  0  0  0  0  0  0  0  0  0
    5.7181   -1.3450    0.0000 N   0  0  0  0  0  0  0  0  0  0  0  0
    8.3964   -0.0403    0.0000 N   0  0  0  0  0  0  0  0  0  0  0  0
    8.3964   -1.6497    0.0000 N   0  0  0  0  0  0  0  0  0  0  0  0
    6.5841   -2.8450    0.0000 N   0  0  0  0  0  0  0  0  0  0  0  0
    3.9860   -0.3450    0.0000 C   0  0  1  0  0  0  0  0  0  0  0  0
    3.1200    0.1550    0.0000 C   0  0  2  0  0  0  0  0  0  0  0  0
    3.9860   -1.3450    0.0000 C   0  0  0  0  0  0  0  0  0  0  0  0
    2.2540   -0.3450    0.0000 C   0  0  0  0  0  0  0  0  0  0  0  0
    3.1200   -1.8450    0.0000 C   0  0  0  0  0  0  0  0  0  0  0  0
    2.2540   -1.3450    0.0000 C   0  0  0  0  0  0  0  0  0  0  0  0
    4.8520    1.1550    0.0000 C   0  0  0  0  0  0  0  0  0  0  0  0
    5.7181   -0.3450    0.0000 C   0  0  0  0  0  0  0  0  0  0  0  0
    5.7181    1.6550    0.0000 C   0  0  0  0  0  0  0  0  0  0  0  0
    3.9860    1.6550    0.0000 C   0  0  0  0  0  0  0  0  0  0  0  0
    7.4501   -0.3450    0.0000 C   0  0  0  0  0  0  0  0  0  0  0  0
    7.4501   -1.3450    0.0000 C   0  0  0  0  0  0  0  0  0  0  0  0
    6.5841   -1.8450    0.0000 C   0  0  0  0  0  0  0  0  0  0  0  0
    5.7181    2.6550    0.0000 C   0  0  0  0  0  0  0  0  0  0  0  0
    3.9860    2.6550    0.0000 C   0  0  0  0  0  0  0  0  0  0  0  0
    4.8520    3.1550    0.0000 C   0  0  0  0  0  0  0  0  0  0  0  0
    8.7070    0.9103    0.0000 C   0  0  0  0  0  0  0  0  0  0  0  0
    8.9800   -0.8450    0.0000 C   0  0  0  0  0  0  0  0  0  0  0  0
    9.6855    1.1165    0.0000 C   0  0  0  0  0  0  0  0  0  0  0  0
    3.9860    0.2750    0.0000 H   0  0  0  0  0  0  0  0  0  0  0  0
    3.5584    0.5934    0.0000 H   0  0  0  0  0  0  0  0  0  0  0  0
    4.1981   -1.9276    0.0000 H   0  0  0  0  0  0  0  0  0  0  0  0
    4.5966   -1.2373    0.0000 H   0  0  0  0  0  0  0  0  0  0  0  0
    2.0419    0.2376    0.0000 H   0  0  0  0  0  0  0  0  0  0  0  0
    1.6434   -0.4527    0.0000 H   0  0  0  0  0  0  0  0  0  0  0  0
    2.7215   -2.3200    0.0000 H   0  0  0  0  0  0  0  0  0  0  0  0
    3.5185   -2.3200    0.0000 H   0  0  0  0  0  0  0  0  0  0  0  0
    1.6434   -1.2373    0.0000 H   0  0  0  0  0  0  0  0  0  0  0  0
    2.0419   -1.9276    0.0000 H   0  0  0  0  0  0  0  0  0  0  0  0
    2.0000    1.0210    0.0000 H   0  0  0  0  0  0  0  0  0  0  0  0
    2.9300    1.5580    0.0000 H   0  0  0  0  0  0  0  0  0  0  0  0
    6.2550    1.3450    0.0000 H   0  0  0  0  0  0  0  0  0  0  0  0
    3.4491    1.3450    0.0000 H   0  0  0  0  0  0  0  0  0  0  0  0
    3.4491    2.9650    0.0000 H   0  0  0  0  0  0  0  0  0  0  0  0
    4.8520    3.7750    0.0000 H   0  0  0  0  0  0  0  0  0  0  0  0
    8.6864    1.5299    0.0000 H   0  0  0  0  0  0  0  0  0  0  0  0
    8.0932    0.9976    0.0000 H   0  0  0  0  0  0  0  0  0  0  0  0
    9.6000   -0.8450    0.0000 H   0  0  0  0  0  0  0  0  0  0  0  0
    7.1210   -3.1550    0.0000 H   0  0  0  0  0  0  0  0  0  0  0  0
    6.0472   -3.1550    0.0000 H   0  0  0  0  0  0  0  0  0  0  0  0
    9.8134    0.5098    0.0000 H   0  0  0  0  0  0  0  0  0  0  0  0
   10.2922    1.2443    0.0000 H   0  0  0  0  0  0  0  0  0  0  0  0
    9.5577    1.7232    0.0000 H   0  0  0  0  0  0  0  0  0  0  0  0
  1 22  1  0  0  0  0
  9  2  1  6  0  0  0
  2 15  1  0  0  0  0
  2 16  1  0  0  0  0
 10  3  1  6  0  0  0
  3 38  1  0  0  0  0
  3 39  1  0  0  0  0
  4 16  1  0  0  0  0
  4 19  2  0  0  0  0
  5 16  2  0  0  0  0
  5 21  1  0  0  0  0
  6 19  1  0  0  0  0
  6 25  1  0  0  0  0
  6 26  1  0  0  0  0
  7 20  1  0  0  0  0
  7 26  2  0  0  0  0
  8 21  1  0  0  0  0
  8 47  1  0  0  0  0
  8 48  1  0  0  0  0
  9 10  1  0  0  0  0
  9 11  1  0  0  0  0
  9 28  1  0  0  0  0
 10 12  1  0  0  0  0
 10 29  1  0  0  0  0
 11 13  1  0  0  0  0
 11 30  1  0  0  0  0
 11 31  1  0  0  0  0
 12 14  1  0  0  0  0
 12 32  1  0  0  0  0
 12 33  1  0  0  0  0
 13 14  1  0  0  0  0
 13 34  1  0  0  0  0
 13 35  1  0  0  0  0
 14 36  1  0  0  0  0
 14 37  1  0  0  0  0
 15 17  2  0  0  0  0
 15 18  1  0  0  0  0
 17 22  1  0  0  0  0
 17 40  1  0  0  0  0
 18 23  2  0  0  0  0
 18 41  1  0  0  0  0
 19 20  1  0  0  0  0
 20 21  2  0  0  0  0
 22 24  2  0  0  0  0
 23 24  1  0  0  0  0
 23 42  1  0  0  0  0
 24 43  1  0  0  0  0
 25 27  1  0  0  0  0
 25 44  1  0  0  0  0
 25 45  1  0  0  0  0
 26 46  1  0  0  0  0
 27 49  1  0  0  0  0
 27 50  1  0  0  0  0
 27 51  1  0  0  0  0
M  END
> <PUBCHEM_COMPOUND_CID>
44450803

> <PUBCHEM_COMPOUND_CANONICALIZED>
1

> <PUBCHEM_CACTVS_COMPLEXITY>
495

> <PUBCHEM_CACTVS_HBOND_ACCEPTOR>
6

> <PUBCHEM_CACTVS_HBOND_DONOR>
2

> <PUBCHEM_CACTVS_ROTATABLE_BOND>
4

> <PUBCHEM_CACTVS_SUBSKEYS>
AAADceB7gAAEAAAAAAAAAAAAAAAAAWAAAAA8YIAAAAAAAFgB/AAAHAIQAAAACCrBFyQ38L9MEACgASZjZACCgC0xF6AJ2KAodpiIaCLB29GUJAhokALIyCcQAAAAAAAAAAIAAAAAAAAABAAAQAAAAAAAAA==

> <PUBCHEM_IUPAC_OPENEYE_NAME>
N2-[(1R,2S)-2-aminocyclohexyl]-N2-(3-chlorophenyl)-9-ethyl-purine-2,6-diamine

> <PUBCHEM_IUPAC_CAS_NAME>
N2-[(1R,2S)-2-aminocyclohexyl]-N2-(3-chlorophenyl)-9-ethylpurine-2,6-diamine

> <PUBCHEM_IUPAC_NAME>
2-N-[(1R,2S)-2-aminocyclohexyl]-2-N-(3-chlorophenyl)-9-ethylpurine-2,6-diamine

> <PUBCHEM_IUPAC_SYSTEMATIC_NAME>
N2-[(1R,2S)-2-azanylcyclohexyl]-N2-(3-chlorophenyl)-9-ethyl-purine-2,6-diamine

> <PUBCHEM_IUPAC_TRADITIONAL_NAME>
[(1R,2S)-2-aminocyclohexyl]-(6-amino-9-ethyl-purin-2-yl)-(3-chlorophenyl)amine

> <PUBCHEM_IUPAC_INCHI>
InChI=1S/C19H24ClN7/c1-2-26-11-23-16-17(22)24-19(25-18(16)26)27(13-7-5-6-12(20)10-13)15-9-4-3-8-14(15)21/h5-7,10-11,14-15H,2-4,8-9,21H2,1H3,(H2,22,24,25)/t14-,15+/m0/s1

> <PUBCHEM_IUPAC_INCHIKEY>
JHLFDBSTLNYPFS-LSDHHAIUSA-N

> <PUBCHEM_XLOGP3_AA>
3

> <PUBCHEM_EXACT_MASS>
385.178

> <PUBCHEM_MOLECULAR_FORMULA>
C19H24ClN7

> <PUBCHEM_MOLECULAR_WEIGHT>
385.9

> <PUBCHEM_OPENEYE_CAN_SMILES>
CCN1C=NC2=C1N=C(N=C2N)N(C3CCCCC3N)C4=CC(=CC=C4)Cl

> <PUBCHEM_OPENEYE_ISO_SMILES>
CCN1C=NC2=C1N=C(N=C2N)N([C@@H]3CCCC[C@@H]3N)C4=CC(=CC=C4)Cl

> <PUBCHEM_CACTVS_TPSA>
98.9

> <PUBCHEM_MONOISOTOPIC_WEIGHT>
385.178

> <PUBCHEM_TOTAL_CHARGE>
0

> <PUBCHEM_HEAVY_ATOM_COUNT>
27

> <PUBCHEM_ATOM_DEF_STEREO_COUNT>
2

> <PUBCHEM_ATOM_UDEF_STEREO_COUNT>
0

> <PUBCHEM_BOND_DEF_STEREO_COUNT>
0

> <PUBCHEM_BOND_UDEF_STEREO_COUNT>
0

> <PUBCHEM_ISOTOPIC_ATOM_COUNT>
0

> <PUBCHEM_COMPONENT_COUNT>
1

> <PUBCHEM_CACTVS_TAUTO_COUNT>
3

> <PUBCHEM_COORDINATE_TYPE>
1
5
255

> <PUBCHEM_BONDANNOTATIONS>
15  17  8
15  18  8
17  22  8
18  23  8
19  20  8
9  2  6
20  21  8
22  24  8
23  24  8
10  3  6
4  16  8
4  19  8
5  16  8
5  21  8
6  19  8
6  26  8
7  20  8
7  26  8

$$$$
1694
  -OEChem-11021605012D

 14 15  0     0  0  0  0  0  0999 V2000
    3.7320    2.0000    0.0000 Br  0  0  0  0  0  0  0  0  0  0  0  0
    3.7320   -2.0000    0.0000 Br  0  0  0  0  0  0  0  0  0  0  0  0
    2.0000    1.0000    0.0000 Br  0  0  0  0  0  0  0  0  0  0  0  0
    2.0000   -1.0000    0.0000 Br  0  0  0  0  0  0  0  0  0  0  0  0
    5.5443    0.8047    0.0000 N   0  0  0  0  0  0  0  0  0  0  0  0
    5.5443   -0.8047    0.0000 N   0  0  0  0  0  0  0  0  0  0  0  0
    6.1279    0.0000    0.0000 N   0  0  0  0  0  0  0  0  0  0  0  0
    4.5981    0.5000    0.0000 C   0  0  0  0  0  0  0  0  0  0  0  0
    4.5981   -0.5000    0.0000 C   0  0  0  0  0  0  0  0  0  0  0  0
    3.7320    1.0000    0.0000 C   0  0  0  0  0  0  0  0  0  0  0  0
    3.7320   -1.0000    0.0000 C   0  0  0  0  0  0  0  0  0  0  0  0
    2.8660    0.5000    0.0000 C   0  0  0  0  0  0  0  0  0  0  0  0
    2.8660   -0.5000    0.0000 C   0  0  0  0  0  0  0  0  0  0  0  0
    6.7479    0.0000    0.0000 H   0  0  0  0  0  0  0  0  0  0  0  0
  1 10  1  0  0  0  0
  2 11  1  0  0  0  0
  3 12  1  0  0  0  0
  4 13  1  0  0  0  0
  5  7  1  0  0  0  0
  5  8  2  0  0  0  0
  6  7  1  0  0  0  0
  6  9  2  0  0  0  0
  7 14  1  0  0  0  0
  8  9  1  0  0  0  0
  8 10  1  0  0  0  0
  9 11  1  0  0  0  0
 10 12  2  0  0  0  0
 11 13  2  0  0  0  0
 12 13  1  0  0  0  0
M  END
> <PUBCHEM_COMPOUND_CID>
1694

> <PUBCHEM_COMPOUND_CANONICALIZED>
1

> <PUBCHEM_CACTVS_COMPLEXITY>
184

> <PUBCHEM_CACTVS_HBOND_ACCEPTOR>
2

> <PUBCHEM_CACTVS_HBOND_DONOR>
1

> <PUBCHEM_CACTVS_ROTATABLE_BOND>
0

> <PUBCHEM_CACTVS_SUBSKEYS>
AAADcQBjAAAAHAAAAAAAAAAAAAAAAWAAAAAwAAAAAAAAAFgB8AAADABYAAABqAgBFgAAwLACAACiAQRgQACCBAQgEAQQuCAgVLgIYCKAkJGAIABggAAIyhcQAAAAAAAkAAEgACkAAEgAAkAAUgAAAAAAAA==

> <PUBCHEM_IUPAC_OPENEYE_NAME>
4,5,6,7-tetrabromo-2H-benzotriazole

> <PUBCHEM_IUPAC_CAS_NAME>
4,5,6,7-tetrabromo-2H-benzotriazole

> <PUBCHEM_IUPAC_NAME>
4,5,6,7-tetrabromo-2H-benzotriazole

> <PUBCHEM_IUPAC_SYSTEMATIC_NAME>
4,5,6,7-tetrakis(bromanyl)-2H-benzotriazole

> <PUBCHEM_IUPAC_TRADITIONAL_NAME>
4,5,6,7-tetrabromo-2H-benzotriazole

> <PUBCHEM_IUPAC_INCHI>
InChI=1S/C6HBr4N3/c7-1-2(8)4(10)6-5(3(1)9)11-13-12-6/h(H,11,12,13)

> <PUBCHEM_IUPAC_INCHIKEY>
OMZYUVOATZSGJY-UHFFFAOYSA-N

> <PUBCHEM_XLOGP3_AA>
3.8

> <PUBCHEM_EXACT_MASS>
434.686

> <PUBCHEM_MOLECULAR_FORMULA>
C6HBr4N3

> <PUBCHEM_MOLECULAR_WEIGHT>
434.711

> <PUBCHEM_OPENEYE_CAN_SMILES>
C1(=C(C2=NNN=C2C(=C1Br)Br)Br)Br

> <PUBCHEM_OPENEYE_ISO_SMILES>
C1(=C(C2=NNN=C2C(=C1Br)Br)Br)Br

> <PUBCHEM_CACTVS_TPSA>
41.6

> <PUBCHEM_MONOISOTOPIC_WEIGHT>
430.69

> <PUBCHEM_TOTAL_CHARGE>
0

> <PUBCHEM_HEAVY_ATOM_COUNT>
13

> <PUBCHEM_ATOM_DEF_STEREO_COUNT>
0

> <PUBCHEM_ATOM_UDEF_STEREO_COUNT>
0

> <PUBCHEM_BOND_DEF_STEREO_COUNT>
0

> <PUBCHEM_BOND_UDEF_STEREO_COUNT>
0

> <PUBCHEM_ISOTOPIC_ATOM_COUNT>
0

> <PUBCHEM_COMPONENT_COUNT>
1

> <PUBCHEM_CACTVS_TAUTO_COUNT>
2

> <PUBCHEM_COORDINATE_TYPE>
1
5
255

> <PUBCHEM_BONDANNOTATIONS>
10  12  8
11  13  8
12  13  8
5  7  8
5  8  8
6  7  8
6  9  8
8  10  8
8  9  8
9  11  8

$$$$
6918508
  -OEChem-11021605012D

 46 49  0     0  0  0  0  0  0999 V2000
   10.6418   -3.0445    0.0000 Cl  0  0  0  0  0  0  0  0  0  0  0  0
   12.3853   -2.0646    0.0000 F   0  0  0  0  0  0  0  0  0  0  0  0
    2.8660    2.5099    0.0000 N   0  0  0  0  0  0  0  0  0  0  0  0
    5.4641    1.0099    0.0000 N   0  0  0  0  0  0  0  0  0  0  0  0
    7.1962    1.0099    0.0000 N   0  0  0  0  0  0  0  0  0  0  0  0
    6.3301    2.5099    0.0000 N   0  0  0  0  0  0  0  0  0  0  0  0
    8.9446   -0.0247    0.0000 N   0  0  0  0  0  0  0  0  0  0  0  0
    8.9561    3.0445    0.0000 N   0  0  0  0  0  0  0  0  0  0  0  0
    9.8622    1.4891    0.0000 N   0  0  0  0  0  0  0  0  0  0  0  0
    4.5981    1.5099    0.0000 C   0  0  0  0  0  0  0  0  0  0  0  0
    4.5981    2.5099    0.0000 C   0  0  0  0  0  0  0  0  0  0  0  0
    3.7320    1.0099    0.0000 C   0  0  0  0  0  0  0  0  0  0  0  0
    2.8660    1.5099    0.0000 C   0  0  0  0  0  0  0  0  0  0  0  0
    3.7320    3.0099    0.0000 C   0  0  0  0  0  0  0  0  0  0  0  0
    2.0000    3.0099    0.0000 C   0  0  0  0  0  0  0  0  0  0  0  0
    6.3301    1.5099    0.0000 C   0  0  0  0  0  0  0  0  0  0  0  0
    8.0622    1.5099    0.0000 C   0  0  0  0  0  0  0  0  0  0  0  0
    8.0622    2.5099    0.0000 C   0  0  0  0  0  0  0  0  0  0  0  0
    7.1962    3.0099    0.0000 C   0  0  0  0  0  0  0  0  0  0  0  0
    8.9561    0.9752    0.0000 C   0  0  0  0  0  0  0  0  0  0  0  0
    9.8047   -0.5347    0.0000 C   0  0  0  0  0  0  0  0  0  0  0  0
    9.8622    2.5307    0.0000 C   0  0  0  0  0  0  0  0  0  0  0  0
    9.7932   -1.5346    0.0000 C   0  0  0  0  0  0  0  0  0  0  0  0
   10.6765   -0.0447    0.0000 C   0  0  0  0  0  0  0  0  0  0  0  0
   10.6534   -2.0446    0.0000 C   0  0  0  0  0  0  0  0  0  0  0  0
   11.5367   -0.5547    0.0000 C   0  0  0  0  0  0  0  0  0  0  0  0
   11.5251   -1.5547    0.0000 C   0  0  0  0  0  0  0  0  0  0  0  0
    4.5981    0.8899    0.0000 H   0  0  0  0  0  0  0  0  0  0  0  0
    3.3335    0.5349    0.0000 H   0  0  0  0  0  0  0  0  0  0  0  0
    4.1306    0.5349    0.0000 H   0  0  0  0  0  0  0  0  0  0  0  0
    5.2087    2.4022    0.0000 H   0  0  0  0  0  0  0  0  0  0  0  0
    4.8101    3.0925    0.0000 H   0  0  0  0  0  0  0  0  0  0  0  0
    2.2554    1.6175    0.0000 H   0  0  0  0  0  0  0  0  0  0  0  0
    2.6540    0.9273    0.0000 H   0  0  0  0  0  0  0  0  0  0  0  0
    4.1306    3.4848    0.0000 H   0  0  0  0  0  0  0  0  0  0  0  0
    3.3335    3.4848    0.0000 H   0  0  0  0  0  0  0  0  0  0  0  0
    5.4641    0.3899    0.0000 H   0  0  0  0  0  0  0  0  0  0  0  0
    2.3100    3.5468    0.0000 H   0  0  0  0  0  0  0  0  0  0  0  0
    1.4631    3.3199    0.0000 H   0  0  0  0  0  0  0  0  0  0  0  0
    1.6900    2.4729    0.0000 H   0  0  0  0  0  0  0  0  0  0  0  0
    7.1962    3.6299    0.0000 H   0  0  0  0  0  0  0  0  0  0  0  0
    8.4041   -0.3285    0.0000 H   0  0  0  0  0  0  0  0  0  0  0  0
   10.3979    2.8428    0.0000 H   0  0  0  0  0  0  0  0  0  0  0  0
    9.2527   -1.8384    0.0000 H   0  0  0  0  0  0  0  0  0  0  0  0
   10.6837    0.5752    0.0000 H   0  0  0  0  0  0  0  0  0  0  0  0
   12.0772   -0.2510    0.0000 H   0  0  0  0  0  0  0  0  0  0  0  0
  1 25  1  0  0  0  0
  2 27  1  0  0  0  0
  3 13  1  0  0  0  0
  3 14  1  0  0  0  0
  3 15  1  0  0  0  0
  4 10  1  0  0  0  0
  4 16  1  0  0  0  0
  4 37  1  0  0  0  0
  5 16  1  0  0  0  0
  5 17  2  0  0  0  0
  6 16  2  0  0  0  0
  6 19  1  0  0  0  0
  7 20  1  0  0  0  0
  7 21  1  0  0  0  0
  7 42  1  0  0  0  0
  8 18  1  0  0  0  0
  8 22  2  0  0  0  0
  9 20  2  0  0  0  0
  9 22  1  0  0  0  0
 10 11  1  0  0  0  0
 10 12  1  0  0  0  0
 10 28  1  0  0  0  0
 11 14  1  0  0  0  0
 11 31  1  0  0  0  0
 11 32  1  0  0  0  0
 12 13  1  0  0  0  0
 12 29  1  0  0  0  0
 12 30  1  0  0  0  0
 13 33  1  0  0  0  0
 13 34  1  0  0  0  0
 14 35  1  0  0  0  0
 14 36  1  0  0  0  0
 15 38  1  0  0  0  0
 15 39  1  0  0  0  0
 15 40  1  0  0  0  0
 17 18  1  0  0  0  0
 17 20  1  0  0  0  0
 18 19  2  0  0  0  0
 19 41  1  0  0  0  0
 21 23  2  0  0  0  0
 21 24  1  0  0  0  0
 22 43  1  0  0  0  0
 23 25  1  0  0  0  0
 23 44  1  0  0  0  0
 24 26  2  0  0  0  0
 24 45  1  0  0  0  0
 25 27  2  0  0  0  0
 26 27  1  0  0  0  0
 26 46  1  0  0  0  0
M  END
> <PUBCHEM_COMPOUND_CID>
6918508

> <PUBCHEM_COMPOUND_CANONICALIZED>
1

> <PUBCHEM_CACTVS_COMPLEXITY>
479

> <PUBCHEM_CACTVS_HBOND_ACCEPTOR>
8

> <PUBCHEM_CACTVS_HBOND_DONOR>
2

> <PUBCHEM_CACTVS_ROTATABLE_BOND>
4

> <PUBCHEM_CACTVS_SUBSKEYS>
AAADceB7gQAEAAAAAAAAAAAAAAAAAAAAAAA8WLEAAAAAAACx/AAAHQIQAAAACCrBFiw/8LfIEACgATZnZACCgC0xF6AJ2KA4dpiIaOLB29GUJAhokALIyCcQAAAAAAAAAAIAAAAAAAAABAAAAAAAAAAAAA==

> <PUBCHEM_IUPAC_OPENEYE_NAME>
N4-(3-chloro-4-fluoro-phenyl)-N6-(1-methyl-4-piperidyl)pyrimido[5,4-d]pyrimidine-4,6-diamine

> <PUBCHEM_IUPAC_CAS_NAME>
N4-(3-chloro-4-fluorophenyl)-N6-(1-methyl-4-piperidinyl)pyrimido[5,4-d]pyrimidine-4,6-diamine

> <PUBCHEM_IUPAC_NAME>
4-N-(3-chloro-4-fluorophenyl)-6-N-(1-methylpiperidin-4-yl)pyrimido[5,4-d]pyrimidine-4,6-diamine

> <PUBCHEM_IUPAC_SYSTEMATIC_NAME>
N4-(3-chloranyl-4-fluoranyl-phenyl)-N6-(1-methylpiperidin-4-yl)pyrimido[5,4-d]pyrimidine-4,6-diamine

> <PUBCHEM_IUPAC_TRADITIONAL_NAME>
[4-(3-chloro-4-fluoro-anilino)pyrimido[5,4-d]pyrimidin-6-yl]-(1-methyl-4-piperidyl)amine

> <PUBCHEM_IUPAC_INCHI>
InChI=1S/C18H19ClFN7/c1-27-6-4-11(5-7-27)25-18-21-9-15-16(26-18)17(23-10-22-15)24-12-2-3-14(20)13(19)8-12/h2-3,8-11H,4-7H2,1H3,(H,21,25,26)(H,22,23,24)

> <PUBCHEM_IUPAC_INCHIKEY>
FTFRZXFNZVCRSK-UHFFFAOYSA-N

> <PUBCHEM_XLOGP3_AA>
3.4

> <PUBCHEM_EXACT_MASS>
387.137

> <PUBCHEM_MOLECULAR_FORMULA>
C18H19ClFN7

> <PUBCHEM_MOLECULAR_WEIGHT>
387.847

> <PUBCHEM_OPENEYE_CAN_SMILES>
CN1CCC(CC1)NC2=NC=C3C(=N2)C(=NC=N3)NC4=CC(=C(C=C4)F)Cl

> <PUBCHEM_OPENEYE_ISO_SMILES>
CN1CCC(CC1)NC2=NC=C3C(=N2)C(=NC=N3)NC4=CC(=C(C=C4)F)Cl

> <PUBCHEM_CACTVS_TPSA>
78.9

> <PUBCHEM_MONOISOTOPIC_WEIGHT>
387.137

> <PUBCHEM_TOTAL_CHARGE>
0

> <PUBCHEM_HEAVY_ATOM_COUNT>
27

> <PUBCHEM_ATOM_DEF_STEREO_COUNT>
0

> <PUBCHEM_ATOM_UDEF_STEREO_COUNT>
0

> <PUBCHEM_BOND_DEF_STEREO_COUNT>
0

> <PUBCHEM_BOND_UDEF_STEREO_COUNT>
0

> <PUBCHEM_ISOTOPIC_ATOM_COUNT>
0

> <PUBCHEM_COMPONENT_COUNT>
1

> <PUBCHEM_CACTVS_TAUTO_COUNT>
9

> <PUBCHEM_COORDINATE_TYPE>
1
5
255

> <PUBCHEM_BONDANNOTATIONS>
17  18  8
17  20  8
18  19  8
21  23  8
21  24  8
23  25  8
24  26  8
25  27  8
26  27  8
5  16  8
5  17  8
6  16  8
6  19  8
8  18  8
8  22  8
9  20  8
9  22  8

$$$$
403994
  -OEChem-11021605012D

 40 43  0     0  0  0  0  0  0999 V2000
    5.4787    2.5829    0.0000 O   0  0  0  0  0  0  0  0  0  0  0  0
    9.3294   -0.0735    0.0000 O   0  0  0  0  0  0  0  0  0  0  0  0
    2.6069   -0.2777    0.0000 O   0  0  0  0  0  0  0  0  0  0  0  0
    8.0377   -1.2275    0.0000 O   0  0  0  0  0  0  0  0  0  0  0  0
    7.3031    2.2274    0.0000 N   0  0  0  0  0  0  0  0  0  0  0  0
    5.9787    1.0441    0.0000 C   0  0  0  0  0  0  0  0  0  0  0  0
    6.6636    0.2593    0.0000 C   0  0  0  0  0  0  0  0  0  0  0  0
    4.9787    1.0441    0.0000 C   0  0  0  0  0  0  0  0  0  0  0  0
    6.2877    1.9951    0.0000 C   0  0  0  0  0  0  0  0  0  0  0  0
    4.6697    1.9951    0.0000 C   0  0  0  0  0  0  0  0  0  0  0  0
    7.6842    0.4680    0.0000 C   0  0  0  0  0  0  0  0  0  0  0  0
    6.3437   -0.6881    0.0000 C   0  0  0  0  0  0  0  0  0  0  0  0
    4.2937    0.2593    0.0000 C   0  0  0  0  0  0  0  0  0  0  0  0
    3.6543    2.2274    0.0000 C   0  0  0  0  0  0  0  0  0  0  0  0
    8.0060    1.4587    0.0000 C   0  0  0  0  0  0  0  0  0  0  0  0
    3.2732    0.4680    0.0000 C   0  0  0  0  0  0  0  0  0  0  0  0
    2.9513    1.4587    0.0000 C   0  0  0  0  0  0  0  0  0  0  0  0
    5.3632   -0.8847    0.0000 C   0  0  0  0  0  0  0  0  0  0  0  0
    7.0042   -1.4389    0.0000 C   0  0  0  0  0  0  0  0  0  0  0  0
    8.3504   -0.2777    0.0000 C   0  0  0  0  0  0  0  0  0  0  0  0
    5.0432   -1.8321    0.0000 C   0  0  0  0  0  0  0  0  0  0  0  0
    6.6842   -2.3863    0.0000 C   0  0  0  0  0  0  0  0  0  0  0  0
    5.7037   -2.5829    0.0000 C   0  0  0  0  0  0  0  0  0  0  0  0
    9.9956   -0.8192    0.0000 C   0  0  0  0  0  0  0  0  0  0  0  0
   10.9746   -0.6151    0.0000 C   0  0  0  0  0  0  0  0  0  0  0  0
    4.4921   -0.3281    0.0000 H   0  0  0  0  0  0  0  0  0  0  0  0
    3.4695    2.8192    0.0000 H   0  0  0  0  0  0  0  0  0  0  0  0
    8.6120    1.5899    0.0000 H   0  0  0  0  0  0  0  0  0  0  0  0
    2.3454    1.5899    0.0000 H   0  0  0  0  0  0  0  0  0  0  0  0
    4.9537   -0.4192    0.0000 H   0  0  0  0  0  0  0  0  0  0  0  0
    7.6120   -1.3170    0.0000 H   0  0  0  0  0  0  0  0  0  0  0  0
    4.4353   -1.9540    0.0000 H   0  0  0  0  0  0  0  0  0  0  0  0
    7.0937   -2.8519    0.0000 H   0  0  0  0  0  0  0  0  0  0  0  0
    5.5053   -3.1703    0.0000 H   0  0  0  0  0  0  0  0  0  0  0  0
    9.4686   -1.1458    0.0000 H   0  0  0  0  0  0  0  0  0  0  0  0
   10.2257   -1.3950    0.0000 H   0  0  0  0  0  0  0  0  0  0  0  0
    2.0000   -0.1511    0.0000 H   0  0  0  0  0  0  0  0  0  0  0  0
   11.1011   -1.2220    0.0000 H   0  0  0  0  0  0  0  0  0  0  0  0
   11.5815   -0.4885    0.0000 H   0  0  0  0  0  0  0  0  0  0  0  0
   10.8480   -0.0082    0.0000 H   0  0  0  0  0  0  0  0  0  0  0  0
  1  9  1  0  0  0  0
  1 10  1  0  0  0  0
  2 20  1  0  0  0  0
  2 24  1  0  0  0  0
  3 16  1  0  0  0  0
  3 37  1  0  0  0  0
  4 20  2  0  0  0  0
  5  9  2  0  0  0  0
  5 15  1  0  0  0  0
  6  7  2  0  0  0  0
  6  8  1  0  0  0  0
  6  9  1  0  0  0  0
  7 11  1  0  0  0  0
  7 12  1  0  0  0  0
  8 10  2  0  0  0  0
  8 13  1  0  0  0  0
 10 14  1  0  0  0  0
 11 15  2  0  0  0  0
 11 20  1  0  0  0  0
 12 18  2  0  0  0  0
 12 19  1  0  0  0  0
 13 16  2  0  0  0  0
 13 26  1  0  0  0  0
 14 17  2  0  0  0  0
 14 27  1  0  0  0  0
 15 28  1  0  0  0  0
 16 17  1  0  0  0  0
 17 29  1  0  0  0  0
 18 21  1  0  0  0  0
 18 30  1  0  0  0  0
 19 22  2  0  0  0  0
 19 31  1  0  0  0  0
 21 23  2  0  0  0  0
 21 32  1  0  0  0  0
 22 23  1  0  0  0  0
 22 33  1  0  0  0  0
 23 34  1  0  0  0  0
 24 25  1  0  0  0  0
 24 35  1  0  0  0  0
 24 36  1  0  0  0  0
 25 38  1  0  0  0  0
 25 39  1  0  0  0  0
 25 40  1  0  0  0  0
M  END
> <PUBCHEM_COMPOUND_CID>
403994

> <PUBCHEM_COMPOUND_CANONICALIZED>
1

> <PUBCHEM_CACTVS_COMPLEXITY>
478

> <PUBCHEM_CACTVS_HBOND_ACCEPTOR>
5

> <PUBCHEM_CACTVS_HBOND_DONOR>
1

> <PUBCHEM_CACTVS_ROTATABLE_BOND>
4

> <PUBCHEM_CACTVS_SUBSKEYS>
AAADccB6OAAAAAAAAAAAAAAAAAAAASAAAAA8YIAAAAAAAFgB/gAAHgAACAAADAThmgY+jtIIFkCoArH3XACCiCA9ICAI2CEuTNgMJnrGtZuOeajmxhHI+cf+//7OgQABAAAIAAACAAIAABAAAAAAAAAAAA==

> <PUBCHEM_IUPAC_OPENEYE_NAME>
ethyl 6-hydroxy-4-phenyl-benzofuro[2,3-b]pyridine-3-carboxylate

> <PUBCHEM_IUPAC_CAS_NAME>
6-hydroxy-4-phenyl-3-benzofuro[2,3-b]pyridinecarboxylic acid ethyl ester

> <PUBCHEM_IUPAC_NAME>
ethyl 6-hydroxy-4-phenyl-[1]benzofuro[2,3-b]pyridine-3-carboxylate

> <PUBCHEM_IUPAC_SYSTEMATIC_NAME>
ethyl 6-oxidanyl-4-phenyl-[1]benzofuro[2,3-b]pyridine-3-carboxylate

> <PUBCHEM_IUPAC_TRADITIONAL_NAME>
6-hydroxy-4-phenyl-benzofuro[2,3-b]pyridine-3-carboxylic acid ethyl ester

> <PUBCHEM_IUPAC_INCHI>
InChI=1S/C20H15NO4/c1-2-24-20(23)15-11-21-19-18(17(15)12-6-4-3-5-7-12)14-10-13(22)8-9-16(14)25-19/h3-11,22H,2H2,1H3

> <PUBCHEM_IUPAC_INCHIKEY>
ZIAVUCXRGWKBBY-UHFFFAOYSA-N

> <PUBCHEM_XLOGP3_AA>
4.4

> <PUBCHEM_EXACT_MASS>
333.1

> <PUBCHEM_MOLECULAR_FORMULA>
C20H15NO4

> <PUBCHEM_MOLECULAR_WEIGHT>
333.343

> <PUBCHEM_OPENEYE_CAN_SMILES>
CCOC(=O)C1=CN=C2C(=C1C3=CC=CC=C3)C4=C(O2)C=CC(=C4)O

> <PUBCHEM_OPENEYE_ISO_SMILES>
CCOC(=O)C1=CN=C2C(=C1C3=CC=CC=C3)C4=C(O2)C=CC(=C4)O

> <PUBCHEM_CACTVS_TPSA>
72.6

> <PUBCHEM_MONOISOTOPIC_WEIGHT>
333.1

> <PUBCHEM_TOTAL_CHARGE>
0

> <PUBCHEM_HEAVY_ATOM_COUNT>
25

> <PUBCHEM_ATOM_DEF_STEREO_COUNT>
0

> <PUBCHEM_ATOM_UDEF_STEREO_COUNT>
0

> <PUBCHEM_BOND_DEF_STEREO_COUNT>
0

> <PUBCHEM_BOND_UDEF_STEREO_COUNT>
0

> <PUBCHEM_ISOTOPIC_ATOM_COUNT>
0

> <PUBCHEM_COMPONENT_COUNT>
1

> <PUBCHEM_CACTVS_TAUTO_COUNT>
3

> <PUBCHEM_COORDINATE_TYPE>
1
5
255

> <PUBCHEM_BONDANNOTATIONS>
1  10  8
1  9  8
10  14  8
11  15  8
12  18  8
12  19  8
13  16  8
14  17  8
16  17  8
18  21  8
19  22  8
21  23  8
22  23  8
5  15  8
5  9  8
6  7  8
6  8  8
6  9  8
7  11  8
8  10  8
8  13  8

$$$$
9845197
  -OEChem-11021605012D

 47 50  0     1  0  0  0  0  0999 V2000
    6.7500    1.1514    0.0000 S   0  0  0  0  0  0  0  0  0  0  0  0
   10.0956    4.2829    0.0000 S   0  0  3  0  0  0  0  0  0  0  0  0
    5.6622   -5.1965    0.0000 F   0  0  0  0  0  0  0  0  0  0  0  0
    9.6889    5.1965    0.0000 O   0  0  0  0  0  0  0  0  0  0  0  0
    5.1622    0.3424    0.0000 N   0  0  0  0  0  0  0  0  0  0  0  0
    6.4712   -0.6087    0.0000 N   0  0  0  0  0  0  0  0  0  0  0  0
    2.0000   -1.5357    0.0000 N   0  0  0  0  0  0  0  0  0  0  0  0
    4.8532   -0.6087    0.0000 C   0  0  0  0  0  0  0  0  0  0  0  0
    5.6622   -1.1965    0.0000 C   0  0  0  0  0  0  0  0  0  0  0  0
    5.6622   -2.1965    0.0000 C   0  0  0  0  0  0  0  0  0  0  0  0
    6.1622    0.3424    0.0000 C   0  0  0  0  0  0  0  0  0  0  0  0
    3.9021   -0.9177    0.0000 C   0  0  0  0  0  0  0  0  0  0  0  0
    7.7445    1.0469    0.0000 C   0  0  0  0  0  0  0  0  0  0  0  0
    8.3323    1.8559    0.0000 C   0  0  0  0  0  0  0  0  0  0  0  0
    6.5282   -2.6965    0.0000 C   0  0  0  0  0  0  0  0  0  0  0  0
    4.7962   -2.6965    0.0000 C   0  0  0  0  0  0  0  0  0  0  0  0
    9.3268    1.7514    0.0000 C   0  0  0  0  0  0  0  0  0  0  0  0
    7.9255    2.7694    0.0000 C   0  0  0  0  0  0  0  0  0  0  0  0
    3.1590   -0.2486    0.0000 C   0  0  0  0  0  0  0  0  0  0  0  0
    3.6942   -1.8958    0.0000 C   0  0  0  0  0  0  0  0  0  0  0  0
    9.5078    3.4739    0.0000 C   0  0  0  0  0  0  0  0  0  0  0  0
    9.9146    2.5604    0.0000 C   0  0  0  0  0  0  0  0  0  0  0  0
    8.5133    3.5784    0.0000 C   0  0  0  0  0  0  0  0  0  0  0  0
    6.5282   -3.6965    0.0000 C   0  0  0  0  0  0  0  0  0  0  0  0
    4.7962   -3.6965    0.0000 C   0  0  0  0  0  0  0  0  0  0  0  0
    5.6622   -4.1965    0.0000 C   0  0  0  0  0  0  0  0  0  0  0  0
    2.2079   -0.5576    0.0000 C   0  0  0  0  0  0  0  0  0  0  0  0
    2.7431   -2.2049    0.0000 C   0  0  0  0  0  0  0  0  0  0  0  0
   11.0902    4.1784    0.0000 C   0  0  0  0  0  0  0  0  0  0  0  0
    4.7978    0.8440    0.0000 H   0  0  0  0  0  0  0  0  0  0  0  0
    7.5736    0.4509    0.0000 H   0  0  0  0  0  0  0  0  0  0  0  0
    8.3018    0.7751    0.0000 H   0  0  0  0  0  0  0  0  0  0  0  0
    7.0652   -2.3865    0.0000 H   0  0  0  0  0  0  0  0  0  0  0  0
    4.2592   -2.3865    0.0000 H   0  0  0  0  0  0  0  0  0  0  0  0
    9.5790    1.1850    0.0000 H   0  0  0  0  0  0  0  0  0  0  0  0
    7.3089    2.8342    0.0000 H   0  0  0  0  0  0  0  0  0  0  0  0
    3.2879    0.3579    0.0000 H   0  0  0  0  0  0  0  0  0  0  0  0
    4.1550   -2.3107    0.0000 H   0  0  0  0  0  0  0  0  0  0  0  0
   10.5312    2.4956    0.0000 H   0  0  0  0  0  0  0  0  0  0  0  0
    8.2612    4.1448    0.0000 H   0  0  0  0  0  0  0  0  0  0  0  0
    7.0652   -4.0065    0.0000 H   0  0  0  0  0  0  0  0  0  0  0  0
    4.2592   -4.0065    0.0000 H   0  0  0  0  0  0  0  0  0  0  0  0
    1.7472   -0.1427    0.0000 H   0  0  0  0  0  0  0  0  0  0  0  0
    2.6142   -2.8113    0.0000 H   0  0  0  0  0  0  0  0  0  0  0  0
   11.0253    3.5618    0.0000 H   0  0  0  0  0  0  0  0  0  0  0  0
   11.7068    4.1136    0.0000 H   0  0  0  0  0  0  0  0  0  0  0  0
   11.1550    4.7950    0.0000 H   0  0  0  0  0  0  0  0  0  0  0  0
  1 11  1  0  0  0  0
  1 13  1  0  0  0  0
  2  4  2  0  0  0  0
  2 21  1  0  0  0  0
  2 29  1  0  0  0  0
  3 26  1  0  0  0  0
  5  8  1  0  0  0  0
  5 11  1  0  0  0  0
  5 30  1  0  0  0  0
  6  9  1  0  0  0  0
  6 11  2  0  0  0  0
  7 27  2  0  0  0  0
  7 28  1  0  0  0  0
  8  9  2  0  0  0  0
  8 12  1  0  0  0  0
  9 10  1  0  0  0  0
 10 15  2  0  0  0  0
 10 16  1  0  0  0  0
 12 19  2  0  0  0  0
 12 20  1  0  0  0  0
 13 14  1  0  0  0  0
 13 31  1  0  0  0  0
 13 32  1  0  0  0  0
 14 17  2  0  0  0  0
 14 18  1  0  0  0  0
 15 24  1  0  0  0  0
 15 33  1  0  0  0  0
 16 25  2  0  0  0  0
 16 34  1  0  0  0  0
 17 22  1  0  0  0  0
 17 35  1  0  0  0  0
 18 23  2  0  0  0  0
 18 36  1  0  0  0  0
 19 27  1  0  0  0  0
 19 37  1  0  0  0  0
 20 28  2  0  0  0  0
 20 38  1  0  0  0  0
 21 22  2  0  0  0  0
 21 23  1  0  0  0  0
 22 39  1  0  0  0  0
 23 40  1  0  0  0  0
 24 26  2  0  0  0  0
 24 41  1  0  0  0  0
 25 26  1  0  0  0  0
 25 42  1  0  0  0  0
 27 43  1  0  0  0  0
 28 44  1  0  0  0  0
 29 45  1  0  0  0  0
 29 46  1  0  0  0  0
 29 47  1  0  0  0  0
M  END
> <PUBCHEM_COMPOUND_CID>
9845197

> <PUBCHEM_COMPOUND_CANONICALIZED>
1

> <PUBCHEM_CACTVS_COMPLEXITY>
532

> <PUBCHEM_CACTVS_HBOND_ACCEPTOR>
6

> <PUBCHEM_CACTVS_HBOND_DONOR>
1

> <PUBCHEM_CACTVS_ROTATABLE_BOND>
6

> <PUBCHEM_CACTVS_SUBSKEYS>
AAADceB7IQBgAAAAAAAAAAAAAAAAAWAAAAA8YIAAAAAAAAAB9AAAHQQQAAAADAjFXgy/kZbJkAqgAzRnZEDC0i3xGrAJ2Tg4dJiIaOLgmZGUIAhogALIyCcQgMAOEAAAAAAAAAAgAAAAAAAAAAAAAAAAAA==

> <PUBCHEM_IUPAC_OPENEYE_NAME>
4-[4-(4-fluorophenyl)-2-[(4-methylsulfinylphenyl)methylsulfanyl]-1H-imidazol-5-yl]pyridine

> <PUBCHEM_IUPAC_CAS_NAME>
4-[4-(4-fluorophenyl)-2-[(4-methylsulfinylphenyl)methylthio]-1H-imidazol-5-yl]pyridine

> <PUBCHEM_IUPAC_NAME>
4-[4-(4-fluorophenyl)-2-[(4-methylsulfinylphenyl)methylsulfanyl]-1H-imidazol-5-yl]pyridine

> <PUBCHEM_IUPAC_SYSTEMATIC_NAME>
4-[4-(4-fluorophenyl)-2-[(4-methylsulfinylphenyl)methylsulfanyl]-1H-imidazol-5-yl]pyridine

> <PUBCHEM_IUPAC_TRADITIONAL_NAME>
4-[4-(4-fluorophenyl)-2-[(4-methylsulfinylbenzyl)thio]-1H-imidazol-5-yl]pyridine

> <PUBCHEM_IUPAC_INCHI>
InChI=1S/C22H18FN3OS2/c1-29(27)19-8-2-15(3-9-19)14-28-22-25-20(16-4-6-18(23)7-5-16)21(26-22)17-10-12-24-13-11-17/h2-13H,14H2,1H3,(H,25,26)

> <PUBCHEM_IUPAC_INCHIKEY>
PRYUWQSCZBKGMW-UHFFFAOYSA-N

> <PUBCHEM_XLOGP3_AA>
3.9

> <PUBCHEM_EXACT_MASS>
423.088

> <PUBCHEM_MOLECULAR_FORMULA>
C22H18FN3OS2

> <PUBCHEM_MOLECULAR_WEIGHT>
423.524

> <PUBCHEM_OPENEYE_CAN_SMILES>
CS(=O)C1=CC=C(C=C1)CSC2=NC(=C(N2)C3=CC=NC=C3)C4=CC=C(C=C4)F

> <PUBCHEM_OPENEYE_ISO_SMILES>
CS(=O)C1=CC=C(C=C1)CSC2=NC(=C(N2)C3=CC=NC=C3)C4=CC=C(C=C4)F

> <PUBCHEM_CACTVS_TPSA>
103

> <PUBCHEM_MONOISOTOPIC_WEIGHT>
423.088

> <PUBCHEM_TOTAL_CHARGE>
0

> <PUBCHEM_HEAVY_ATOM_COUNT>
29

> <PUBCHEM_ATOM_DEF_STEREO_COUNT>
0

> <PUBCHEM_ATOM_UDEF_STEREO_COUNT>
1

> <PUBCHEM_BOND_DEF_STEREO_COUNT>
0

> <PUBCHEM_BOND_UDEF_STEREO_COUNT>
0

> <PUBCHEM_ISOTOPIC_ATOM_COUNT>
0

> <PUBCHEM_COMPONENT_COUNT>
1

> <PUBCHEM_CACTVS_TAUTO_COUNT>
3

> <PUBCHEM_COORDINATE_TYPE>
1
5
255

> <PUBCHEM_BONDANNOTATIONS>
10  15  8
10  16  8
12  19  8
12  20  8
14  17  8
14  18  8
15  24  8
16  25  8
17  22  8
18  23  8
19  27  8
2  29  3
20  28  8
21  22  8
21  23  8
24  26  8
25  26  8
5  11  8
5  8  8
6  11  8
6  9  8
7  27  8
7  28  8
8  9  8

$$$$
5941539
  -OEChem-11021605012D

 59 60  0     0  0  0  0  0  0999 V2000
    7.1962    5.0950    0.0000 O   0  0  0  0  0  0  0  0  0  0  0  0
    7.1962   -0.9050    0.0000 O   0  0  0  0  0  0  0  0  0  0  0  0
    5.4641   -0.9050    0.0000 N   0  0  0  0  0  0  0  0  0  0  0  0
    4.5981    1.5950    0.0000 N   0  0  0  0  0  0  0  0  0  0  0  0
    8.9282    4.0950    0.0000 C   0  0  0  0  0  0  0  0  0  0  0  0
    5.4641    4.0950    0.0000 C   0  0  0  0  0  0  0  0  0  0  0  0
    8.0622    3.5950    0.0000 C   0  0  0  0  0  0  0  0  0  0  0  0
    6.3301    3.5950    0.0000 C   0  0  0  0  0  0  0  0  0  0  0  0
    7.1962    4.0950    0.0000 C   0  0  0  0  0  0  0  0  0  0  0  0
    8.0622    2.5950    0.0000 C   0  0  0  0  0  0  0  0  0  0  0  0
    6.3301    2.5950    0.0000 C   0  0  0  0  0  0  0  0  0  0  0  0
    7.1962    2.0950    0.0000 C   0  0  0  0  0  0  0  0  0  0  0  0
    9.7942    3.5950    0.0000 C   0  0  0  0  0  0  0  0  0  0  0  0
    8.9282    5.0950    0.0000 C   0  0  0  0  0  0  0  0  0  0  0  0
    4.5981    3.5950    0.0000 C   0  0  0  0  0  0  0  0  0  0  0  0
    5.4641    5.0950    0.0000 C   0  0  0  0  0  0  0  0  0  0  0  0
    7.1962    1.0950    0.0000 C   0  0  0  0  0  0  0  0  0  0  0  0
    4.5981   -2.4050    0.0000 C   0  0  0  0  0  0  0  0  0  0  0  0
    4.5981   -3.4050    0.0000 C   0  0  0  0  0  0  0  0  0  0  0  0
    5.4641   -1.9050    0.0000 C   0  0  0  0  0  0  0  0  0  0  0  0
    6.3301    0.5950    0.0000 C   0  0  0  0  0  0  0  0  0  0  0  0
    3.7320   -3.9050    0.0000 C   0  0  0  0  0  0  0  0  0  0  0  0
    6.3301   -0.4050    0.0000 C   0  0  0  0  0  0  0  0  0  0  0  0
    2.8660   -3.4050    0.0000 C   0  0  0  0  0  0  0  0  0  0  0  0
    3.7320   -4.9050    0.0000 C   0  0  0  0  0  0  0  0  0  0  0  0
    2.0000   -3.9050    0.0000 C   0  0  0  0  0  0  0  0  0  0  0  0
    2.8660   -5.4050    0.0000 C   0  0  0  0  0  0  0  0  0  0  0  0
    5.4641    1.0950    0.0000 C   0  0  0  0  0  0  0  0  0  0  0  0
    2.0000   -4.9050    0.0000 C   0  0  0  0  0  0  0  0  0  0  0  0
    8.9282    3.4750    0.0000 H   0  0  0  0  0  0  0  0  0  0  0  0
    5.4641    3.4750    0.0000 H   0  0  0  0  0  0  0  0  0  0  0  0
    8.5991    2.2850    0.0000 H   0  0  0  0  0  0  0  0  0  0  0  0
    5.7932    2.2850    0.0000 H   0  0  0  0  0  0  0  0  0  0  0  0
    9.4842    3.0581    0.0000 H   0  0  0  0  0  0  0  0  0  0  0  0
   10.3312    3.2850    0.0000 H   0  0  0  0  0  0  0  0  0  0  0  0
   10.1042    4.1319    0.0000 H   0  0  0  0  0  0  0  0  0  0  0  0
    9.5482    5.0950    0.0000 H   0  0  0  0  0  0  0  0  0  0  0  0
    8.9282    5.7150    0.0000 H   0  0  0  0  0  0  0  0  0  0  0  0
    8.3082    5.0950    0.0000 H   0  0  0  0  0  0  0  0  0  0  0  0
    4.2881    4.1319    0.0000 H   0  0  0  0  0  0  0  0  0  0  0  0
    4.0611    3.2850    0.0000 H   0  0  0  0  0  0  0  0  0  0  0  0
    4.9081    3.0581    0.0000 H   0  0  0  0  0  0  0  0  0  0  0  0
    6.0841    5.0950    0.0000 H   0  0  0  0  0  0  0  0  0  0  0  0
    5.4641    5.7150    0.0000 H   0  0  0  0  0  0  0  0  0  0  0  0
    4.8441    5.0950    0.0000 H   0  0  0  0  0  0  0  0  0  0  0  0
    7.7331    0.7850    0.0000 H   0  0  0  0  0  0  0  0  0  0  0  0
    4.3860   -1.8224    0.0000 H   0  0  0  0  0  0  0  0  0  0  0  0
    3.9875   -2.5127    0.0000 H   0  0  0  0  0  0  0  0  0  0  0  0
    4.8101   -3.9876    0.0000 H   0  0  0  0  0  0  0  0  0  0  0  0
    5.2087   -3.2973    0.0000 H   0  0  0  0  0  0  0  0  0  0  0  0
    5.6762   -2.4876    0.0000 H   0  0  0  0  0  0  0  0  0  0  0  0
    6.0747   -1.7973    0.0000 H   0  0  0  0  0  0  0  0  0  0  0  0
    7.7331    5.4050    0.0000 H   0  0  0  0  0  0  0  0  0  0  0  0
    4.9272   -0.5950    0.0000 H   0  0  0  0  0  0  0  0  0  0  0  0
    2.8660   -2.7850    0.0000 H   0  0  0  0  0  0  0  0  0  0  0  0
    4.2690   -5.2150    0.0000 H   0  0  0  0  0  0  0  0  0  0  0  0
    1.4631   -3.5950    0.0000 H   0  0  0  0  0  0  0  0  0  0  0  0
    2.8660   -6.0250    0.0000 H   0  0  0  0  0  0  0  0  0  0  0  0
    1.4631   -5.2150    0.0000 H   0  0  0  0  0  0  0  0  0  0  0  0
  1  9  1  0  0  0  0
  1 53  1  0  0  0  0
  2 23  2  0  0  0  0
  3 20  1  0  0  0  0
  3 23  1  0  0  0  0
  3 54  1  0  0  0  0
  4 28  3  0  0  0  0
  5  7  1  0  0  0  0
  5 13  1  0  0  0  0
  5 14  1  0  0  0  0
  5 30  1  0  0  0  0
  6  8  1  0  0  0  0
  6 15  1  0  0  0  0
  6 16  1  0  0  0  0
  6 31  1  0  0  0  0
  7  9  2  0  0  0  0
  7 10  1  0  0  0  0
  8  9  1  0  0  0  0
  8 11  2  0  0  0  0
 10 12  2  0  0  0  0
 10 32  1  0  0  0  0
 11 12  1  0  0  0  0
 11 33  1  0  0  0  0
 12 17  1  0  0  0  0
 13 34  1  0  0  0  0
 13 35  1  0  0  0  0
 13 36  1  0  0  0  0
 14 37  1  0  0  0  0
 14 38  1  0  0  0  0
 14 39  1  0  0  0  0
 15 40  1  0  0  0  0
 15 41  1  0  0  0  0
 15 42  1  0  0  0  0
 16 43  1  0  0  0  0
 16 44  1  0  0  0  0
 16 45  1  0  0  0  0
 17 21  2  0  0  0  0
 17 46  1  0  0  0  0
 18 19  1  0  0  0  0
 18 20  1  0  0  0  0
 18 47  1  0  0  0  0
 18 48  1  0  0  0  0
 19 22  1  0  0  0  0
 19 49  1  0  0  0  0
 19 50  1  0  0  0  0
 20 51  1  0  0  0  0
 20 52  1  0  0  0  0
 21 23  1  0  0  0  0
 21 28  1  0  0  0  0
 22 24  2  0  0  0  0
 22 25  1  0  0  0  0
 24 26  1  0  0  0  0
 24 55  1  0  0  0  0
 25 27  2  0  0  0  0
 25 56  1  0  0  0  0
 26 29  2  0  0  0  0
 26 57  1  0  0  0  0
 27 29  1  0  0  0  0
 27 58  1  0  0  0  0
 29 59  1  0  0  0  0
M  END
> <PUBCHEM_COMPOUND_CID>
5941539

> <PUBCHEM_COMPOUND_CANONICALIZED>
1

> <PUBCHEM_CACTVS_COMPLEXITY>
577

> <PUBCHEM_CACTVS_HBOND_ACCEPTOR>
3

> <PUBCHEM_CACTVS_HBOND_DONOR>
2

> <PUBCHEM_CACTVS_ROTATABLE_BOND>
8

> <PUBCHEM_CACTVS_SUBSKEYS>
AAADceB7MAAAAAAAAAAAAAAAAAAAAAAAAAAwYAAAAAAAAAABQAAAHgAQCAAADQTBmAQyBoLAAgCYBiFSEACiAAAgIAAIiIEMCMgIpiKCkRKEcAAk1hGImYeQwOAOoAACAAAIAABAAAQAABAAAAAAAAAAAA==

> <PUBCHEM_IUPAC_OPENEYE_NAME>
(E)-2-cyano-3-(4-hydroxy-3,5-diisopropyl-phenyl)-N-(3-phenylpropyl)prop-2-enamide

> <PUBCHEM_IUPAC_CAS_NAME>
(E)-2-cyano-3-[4-hydroxy-3,5-di(propan-2-yl)phenyl]-N-(3-phenylpropyl)-2-propenamide

> <PUBCHEM_IUPAC_NAME>
(E)-2-cyano-3-[4-hydroxy-3,5-di(propan-2-yl)phenyl]-N-(3-phenylpropyl)prop-2-enamide

> <PUBCHEM_IUPAC_SYSTEMATIC_NAME>
(E)-2-cyano-3-[4-oxidanyl-3,5-di(propan-2-yl)phenyl]-N-(3-phenylpropyl)prop-2-enamide

> <PUBCHEM_IUPAC_TRADITIONAL_NAME>
(E)-2-cyano-3-(4-hydroxy-3,5-diisopropyl-phenyl)-N-(3-phenylpropyl)acrylamide

> <PUBCHEM_IUPAC_INCHI>
InChI=1S/C25H30N2O2/c1-17(2)22-14-20(15-23(18(3)4)24(22)28)13-21(16-26)25(29)27-12-8-11-19-9-6-5-7-10-19/h5-7,9-10,13-15,17-18,28H,8,11-12H2,1-4H3,(H,27,29)/b21-13+

> <PUBCHEM_IUPAC_INCHIKEY>
JANPYFTYAGTSIN-FYJGNVAPSA-N

> <PUBCHEM_XLOGP3_AA>
5.8

> <PUBCHEM_EXACT_MASS>
390.231

> <PUBCHEM_MOLECULAR_FORMULA>
C25H30N2O2

> <PUBCHEM_MOLECULAR_WEIGHT>
390.527

> <PUBCHEM_OPENEYE_CAN_SMILES>
CC(C)C1=CC(=CC(=C1O)C(C)C)C=C(C#N)C(=O)NCCCC2=CC=CC=C2

> <PUBCHEM_OPENEYE_ISO_SMILES>
CC(C)C1=CC(=CC(=C1O)C(C)C)/C=C(\C#N)/C(=O)NCCCC2=CC=CC=C2

> <PUBCHEM_CACTVS_TPSA>
73.1

> <PUBCHEM_MONOISOTOPIC_WEIGHT>
390.231

> <PUBCHEM_TOTAL_CHARGE>
0

> <PUBCHEM_HEAVY_ATOM_COUNT>
29

> <PUBCHEM_ATOM_DEF_STEREO_COUNT>
0

> <PUBCHEM_ATOM_UDEF_STEREO_COUNT>
0

> <PUBCHEM_BOND_DEF_STEREO_COUNT>
1

> <PUBCHEM_BOND_UDEF_STEREO_COUNT>
0

> <PUBCHEM_ISOTOPIC_ATOM_COUNT>
0

> <PUBCHEM_COMPONENT_COUNT>
1

> <PUBCHEM_CACTVS_TAUTO_COUNT>
7

> <PUBCHEM_COORDINATE_TYPE>
1
5
255

> <PUBCHEM_BONDANNOTATIONS>
10  12  8
11  12  8
22  24  8
22  25  8
24  26  8
25  27  8
26  29  8
27  29  8
7  10  8
7  9  8
8  11  8
8  9  8

$$$$
5472313
  -OEChem-11021605012D

 32 35  0     0  0  0  0  0  0999 V2000
    7.1774    2.5924    0.0000 I   0  0  0  0  0  0  0  0  0  0  0  0
    6.5348   -2.5924    0.0000 O   0  0  0  0  0  0  0  0  0  0  0  0
    4.3211    1.6624    0.0000 O   0  0  0  0  0  0  0  0  0  0  0  0
    4.6783   -1.6419    0.0000 N   0  0  0  0  0  0  0  0  0  0  0  0
    4.9889    0.9181    0.0000 N   0  0  0  0  0  0  0  0  0  0  0  0
    7.7917   -1.3372    0.0000 N   0  0  0  0  0  0  0  0  0  0  0  0
    5.2619   -0.8372    0.0000 C   0  0  0  0  0  0  0  0  0  0  0  0
    6.2619   -0.8372    0.0000 C   0  0  0  0  0  0  0  0  0  0  0  0
    4.6783   -0.0324    0.0000 C   0  0  0  0  0  0  0  0  0  0  0  0
    3.7320   -0.3372    0.0000 C   0  0  0  0  0  0  0  0  0  0  0  0
    3.7320   -1.3372    0.0000 C   0  0  0  0  0  0  0  0  0  0  0  0
    6.8455   -0.0324    0.0000 C   0  0  0  0  0  0  0  0  0  0  0  0
    7.7960   -0.3431    0.0000 C   0  0  0  0  0  0  0  0  0  0  0  0
    6.8455   -1.6419    0.0000 C   0  0  0  0  0  0  0  0  0  0  0  0
    2.8660    0.1628    0.0000 C   0  0  0  0  0  0  0  0  0  0  0  0
    2.8660   -1.8372    0.0000 C   0  0  0  0  0  0  0  0  0  0  0  0
    6.6393    0.9461    0.0000 C   0  0  0  0  0  0  0  0  0  0  0  0
    2.0000   -0.3372    0.0000 C   0  0  0  0  0  0  0  0  0  0  0  0
    2.0000   -1.3372    0.0000 C   0  0  0  0  0  0  0  0  0  0  0  0
    8.5403    0.3247    0.0000 C   0  0  0  0  0  0  0  0  0  0  0  0
    7.3836    1.6139    0.0000 C   0  0  0  0  0  0  0  0  0  0  0  0
    8.3341    1.3032    0.0000 C   0  0  0  0  0  0  0  0  0  0  0  0
    4.8709   -2.2312    0.0000 H   0  0  0  0  0  0  0  0  0  0  0  0
    2.8660    0.7828    0.0000 H   0  0  0  0  0  0  0  0  0  0  0  0
    2.8660   -2.4572    0.0000 H   0  0  0  0  0  0  0  0  0  0  0  0
    6.0500    1.1387    0.0000 H   0  0  0  0  0  0  0  0  0  0  0  0
    5.5956    1.0459    0.0000 H   0  0  0  0  0  0  0  0  0  0  0  0
    1.4631   -0.0272    0.0000 H   0  0  0  0  0  0  0  0  0  0  0  0
    1.4631   -1.6472    0.0000 H   0  0  0  0  0  0  0  0  0  0  0  0
    9.1296    0.1321    0.0000 H   0  0  0  0  0  0  0  0  0  0  0  0
    8.7956    1.7173    0.0000 H   0  0  0  0  0  0  0  0  0  0  0  0
    4.5137    2.2517    0.0000 H   0  0  0  0  0  0  0  0  0  0  0  0
  1 21  1  0  0  0  0
  2 14  2  0  0  0  0
  3  5  1  0  0  0  0
  3 32  1  0  0  0  0
  4  7  1  0  0  0  0
  4 11  1  0  0  0  0
  4 23  1  0  0  0  0
  5  9  1  0  0  0  0
  5 27  1  0  0  0  0
  6 13  2  0  0  0  0
  6 14  1  0  0  0  0
  7  8  1  0  0  0  0
  7  9  2  0  0  0  0
  8 12  2  0  0  0  0
  8 14  1  0  0  0  0
  9 10  1  0  0  0  0
 10 11  1  0  0  0  0
 10 15  2  0  0  0  0
 11 16  2  0  0  0  0
 12 13  1  0  0  0  0
 12 17  1  0  0  0  0
 13 20  1  0  0  0  0
 15 18  1  0  0  0  0
 15 24  1  0  0  0  0
 16 19  1  0  0  0  0
 16 25  1  0  0  0  0
 17 21  2  0  0  0  0
 17 26  1  0  0  0  0
 18 19  2  0  0  0  0
 18 28  1  0  0  0  0
 19 29  1  0  0  0  0
 20 22  2  0  0  0  0
 20 30  1  0  0  0  0
 21 22  1  0  0  0  0
 22 31  1  0  0  0  0
M  END
> <PUBCHEM_COMPOUND_CID>
5472313

> <PUBCHEM_COMPOUND_CANONICALIZED>
1

> <PUBCHEM_CACTVS_COMPLEXITY>
650

> <PUBCHEM_CACTVS_HBOND_ACCEPTOR>
3

> <PUBCHEM_CACTVS_HBOND_DONOR>
3

> <PUBCHEM_CACTVS_ROTATABLE_BOND>
2

> <PUBCHEM_CACTVS_SUBSKEYS>
AAADccB7MAAAAgAAAAAAAAAAAAAAAWIAAAAwQAAAAAAAAFgB8AAAHgA0CAAADAiDngAwwPLZkACoAyVyVACCgCAhEiAomSEwdNgIYPrA1dGUJAhgkADIyQcciICOAAAAAAACAAAAAAAAAAQAAAAAAAAAAA==

> <PUBCHEM_IUPAC_OPENEYE_NAME>
3-[3-(hydroxyamino)-1H-indol-2-yl]-5-iodo-indol-2-one

> <PUBCHEM_IUPAC_CAS_NAME>
3-[3-(hydroxyamino)-1H-indol-2-yl]-5-iodo-2-indolone

> <PUBCHEM_IUPAC_NAME>
3-[3-(hydroxyamino)-1H-indol-2-yl]-5-iodoindol-2-one

> <PUBCHEM_IUPAC_SYSTEMATIC_NAME>
5-iodanyl-3-[3-(oxidanylamino)-1H-indol-2-yl]indol-2-one

> <PUBCHEM_IUPAC_TRADITIONAL_NAME>
3-[3-(hydroxyamino)-1H-indol-2-yl]-5-iodo-indol-2-one

> <PUBCHEM_IUPAC_INCHI>
InChI=1S/C16H10IN3O2/c17-8-5-6-12-10(7-8)13(16(21)19-12)15-14(20-22)9-3-1-2-4-11(9)18-15/h1-7,18,20,22H

> <PUBCHEM_IUPAC_INCHIKEY>
TVRGIIYSFNARIN-UHFFFAOYSA-N

> <PUBCHEM_XLOGP3_AA>
2.4

> <PUBCHEM_EXACT_MASS>
402.982

> <PUBCHEM_MOLECULAR_FORMULA>
C16H10IN3O2

> <PUBCHEM_MOLECULAR_WEIGHT>
403.179

> <PUBCHEM_OPENEYE_CAN_SMILES>
C1=CC=C2C(=C1)C(=C(N2)C3=C4C=C(C=CC4=NC3=O)I)NO

> <PUBCHEM_OPENEYE_ISO_SMILES>
C1=CC=C2C(=C1)C(=C(N2)C3=C4C=C(C=CC4=NC3=O)I)NO

> <PUBCHEM_CACTVS_TPSA>
77.5

> <PUBCHEM_MONOISOTOPIC_WEIGHT>
402.982

> <PUBCHEM_TOTAL_CHARGE>
0

> <PUBCHEM_HEAVY_ATOM_COUNT>
22

> <PUBCHEM_ATOM_DEF_STEREO_COUNT>
0

> <PUBCHEM_ATOM_UDEF_STEREO_COUNT>
0

> <PUBCHEM_BOND_DEF_STEREO_COUNT>
0

> <PUBCHEM_BOND_UDEF_STEREO_COUNT>
0

> <PUBCHEM_ISOTOPIC_ATOM_COUNT>
0

> <PUBCHEM_COMPONENT_COUNT>
1

> <PUBCHEM_CACTVS_TAUTO_COUNT>
78

> <PUBCHEM_COORDINATE_TYPE>
1
5
255

> <PUBCHEM_BONDANNOTATIONS>
10  11  8
10  15  8
11  16  8
12  13  8
12  17  8
13  20  8
15  18  8
16  19  8
17  21  8
18  19  8
20  22  8
21  22  8
4  11  8
4  7  8
7  9  8
9  10  8

$$$$
4677904
  -OEChem-11021605012D

 35 37  0     0  0  0  0  0  0999 V2000
    4.8147    1.5707    0.0000 S   0  0  0  0  0  0  0  0  0  0  0  0
    4.8535   -1.0166    0.0000 S   0  0  0  0  0  0  0  0  0  0  0  0
    3.0934    2.0319    0.0000 O   0  0  0  0  0  0  0  0  0  0  0  0
    3.7320    0.3683    0.0000 N   0  0  0  0  0  0  0  0  0  0  0  0
    5.3147    0.7047    0.0000 N   0  0  0  0  0  0  0  0  0  0  0  0
    2.8660   -0.1317    0.0000 C   0  0  0  0  0  0  0  0  0  0  0  0
    6.3092    0.6002    0.0000 C   0  0  0  0  0  0  0  0  0  0  0  0
    4.6456   -0.0385    0.0000 C   0  0  0  0  0  0  0  0  0  0  0  0
    2.8660   -1.1317    0.0000 C   0  0  0  0  0  0  0  0  0  0  0  0
    6.8970    1.4092    0.0000 C   0  0  0  0  0  0  0  0  0  0  0  0
    3.8366    1.3628    0.0000 C   0  0  0  0  0  0  0  0  0  0  0  0
    2.0000   -1.6317    0.0000 C   0  0  0  0  0  0  0  0  0  0  0  0
    3.7320   -1.6317    0.0000 C   0  0  0  0  0  0  0  0  0  0  0  0
    6.4903    2.3227    0.0000 C   0  0  0  0  0  0  0  0  0  0  0  0
    7.8916    1.3046    0.0000 C   0  0  0  0  0  0  0  0  0  0  0  0
    2.0000   -2.6317    0.0000 C   0  0  0  0  0  0  0  0  0  0  0  0
    3.7320   -2.6317    0.0000 C   0  0  0  0  0  0  0  0  0  0  0  0
    7.0781    3.1317    0.0000 C   0  0  0  0  0  0  0  0  0  0  0  0
    8.4793    2.1137    0.0000 C   0  0  0  0  0  0  0  0  0  0  0  0
    2.8660   -3.1317    0.0000 C   0  0  0  0  0  0  0  0  0  0  0  0
    8.0726    3.0272    0.0000 C   0  0  0  0  0  0  0  0  0  0  0  0
    2.6540    0.4509    0.0000 H   0  0  0  0  0  0  0  0  0  0  0  0
    2.2554   -0.2394    0.0000 H   0  0  0  0  0  0  0  0  0  0  0  0
    6.1384    0.0042    0.0000 H   0  0  0  0  0  0  0  0  0  0  0  0
    6.8665    0.3284    0.0000 H   0  0  0  0  0  0  0  0  0  0  0  0
    1.4631   -1.3217    0.0000 H   0  0  0  0  0  0  0  0  0  0  0  0
    4.2690   -1.3217    0.0000 H   0  0  0  0  0  0  0  0  0  0  0  0
    5.8737    2.3875    0.0000 H   0  0  0  0  0  0  0  0  0  0  0  0
    8.1437    0.7382    0.0000 H   0  0  0  0  0  0  0  0  0  0  0  0
    1.4631   -2.9417    0.0000 H   0  0  0  0  0  0  0  0  0  0  0  0
    4.2690   -2.9417    0.0000 H   0  0  0  0  0  0  0  0  0  0  0  0
    6.8259    3.6981    0.0000 H   0  0  0  0  0  0  0  0  0  0  0  0
    9.0960    2.0488    0.0000 H   0  0  0  0  0  0  0  0  0  0  0  0
    2.8660   -3.7517    0.0000 H   0  0  0  0  0  0  0  0  0  0  0  0
    8.4370    3.5288    0.0000 H   0  0  0  0  0  0  0  0  0  0  0  0
  1  5  1  0  0  0  0
  1 11  1  0  0  0  0
  2  8  2  0  0  0  0
  3 11  2  0  0  0  0
  4  6  1  0  0  0  0
  4  8  1  0  0  0  0
  4 11  1  0  0  0  0
  5  7  1  0  0  0  0
  5  8  1  0  0  0  0
  6  9  1  0  0  0  0
  6 22  1  0  0  0  0
  6 23  1  0  0  0  0
  7 10  1  0  0  0  0
  7 24  1  0  0  0  0
  7 25  1  0  0  0  0
  9 12  2  0  0  0  0
  9 13  1  0  0  0  0
 10 14  2  0  0  0  0
 10 15  1  0  0  0  0
 12 16  1  0  0  0  0
 12 26  1  0  0  0  0
 13 17  2  0  0  0  0
 13 27  1  0  0  0  0
 14 18  1  0  0  0  0
 14 28  1  0  0  0  0
 15 19  2  0  0  0  0
 15 29  1  0  0  0  0
 16 20  2  0  0  0  0
 16 30  1  0  0  0  0
 17 20  1  0  0  0  0
 17 31  1  0  0  0  0
 18 21  2  0  0  0  0
 18 32  1  0  0  0  0
 19 21  1  0  0  0  0
 19 33  1  0  0  0  0
 20 34  1  0  0  0  0
 21 35  1  0  0  0  0
M  END
> <PUBCHEM_COMPOUND_CID>
4677904

> <PUBCHEM_COMPOUND_CANONICALIZED>
1

> <PUBCHEM_CACTVS_COMPLEXITY>
390

> <PUBCHEM_CACTVS_HBOND_ACCEPTOR>
3

> <PUBCHEM_CACTVS_HBOND_DONOR>
0

> <PUBCHEM_CACTVS_ROTATABLE_BOND>
4

> <PUBCHEM_CACTVS_SUBSKEYS>
AAADccB7IABgAAAAAAAAAAAAAAAAAWAAAAAwYAAAAAAAAAABQAAAHgQAQAAADADBGAQxAIMAAACMAiBCEACCAAAgAAgIiAAIBIiIICKAkRGEIAhohwIIiAcQgAAOAAAAAAAAAAAAAAAAAAAAAAAAAAAAAA==

> <PUBCHEM_IUPAC_OPENEYE_NAME>
2,4-dibenzyl-3-thioxo-1,2,4-thiadiazolidin-5-one

> <PUBCHEM_IUPAC_CAS_NAME>
2,4-bis(phenylmethyl)-3-sulfanylidene-1,2,4-thiadiazolidin-5-one

> <PUBCHEM_IUPAC_NAME>
2,4-dibenzyl-3-sulfanylidene-1,2,4-thiadiazolidin-5-one

> <PUBCHEM_IUPAC_SYSTEMATIC_NAME>
2,4-bis(phenylmethyl)-3-sulfanylidene-1,2,4-thiadiazolidin-5-one

> <PUBCHEM_IUPAC_TRADITIONAL_NAME>
2,4-dibenzyl-3-thioxo-1,2,4-thiadiazolidin-5-one

> <PUBCHEM_IUPAC_INCHI>
InChI=1S/C16H14N2OS2/c19-16-17(11-13-7-3-1-4-8-13)15(20)18(21-16)12-14-9-5-2-6-10-14/h1-10H,11-12H2

> <PUBCHEM_IUPAC_INCHIKEY>
RUJZRLFQRAMGNM-UHFFFAOYSA-N

> <PUBCHEM_XLOGP3_AA>
3.6

> <PUBCHEM_EXACT_MASS>
314.055

> <PUBCHEM_MOLECULAR_FORMULA>
C16H14N2OS2

> <PUBCHEM_MOLECULAR_WEIGHT>
314.421

> <PUBCHEM_OPENEYE_CAN_SMILES>
C1=CC=C(C=C1)CN2C(=S)N(SC2=O)CC3=CC=CC=C3

> <PUBCHEM_OPENEYE_ISO_SMILES>
C1=CC=C(C=C1)CN2C(=S)N(SC2=O)CC3=CC=CC=C3

> <PUBCHEM_CACTVS_TPSA>
80.9

> <PUBCHEM_MONOISOTOPIC_WEIGHT>
314.055

> <PUBCHEM_TOTAL_CHARGE>
0

> <PUBCHEM_HEAVY_ATOM_COUNT>
21

> <PUBCHEM_ATOM_DEF_STEREO_COUNT>
0

> <PUBCHEM_ATOM_UDEF_STEREO_COUNT>
0

> <PUBCHEM_BOND_DEF_STEREO_COUNT>
0

> <PUBCHEM_BOND_UDEF_STEREO_COUNT>
0

> <PUBCHEM_ISOTOPIC_ATOM_COUNT>
0

> <PUBCHEM_COMPONENT_COUNT>
1

> <PUBCHEM_CACTVS_TAUTO_COUNT>
1

> <PUBCHEM_COORDINATE_TYPE>
1
5
255

> <PUBCHEM_BONDANNOTATIONS>
1  11  8
1  5  8
10  14  8
10  15  8
12  16  8
13  17  8
14  18  8
15  19  8
16  20  8
17  20  8
18  21  8
19  21  8
4  11  8
4  8  8
5  8  8
9  12  8
9  13  8

$$$$
5281813
  -OEChem-11021605012D

 33 36  0     0  0  0  0  0  0999 V2000
    5.6783   -0.7438    0.0000 O   0  0  0  0  0  0  0  0  0  0  0  0
    7.8223    1.3247    0.0000 O   0  0  0  0  0  0  0  0  0  0  0  0
    7.0911   -2.1004    0.0000 O   0  0  0  0  0  0  0  0  0  0  0  0
   10.4619   -1.0195    0.0000 O   0  0  0  0  0  0  0  0  0  0  0  0
    6.5352    2.4836    0.0000 O   0  0  0  0  0  0  0  0  0  0  0  0
    2.8182    2.1031    0.0000 O   0  0  0  0  0  0  0  0  0  0  0  0
    2.1888    0.1604    0.0000 O   0  0  0  0  0  0  0  0  0  0  0  0
    6.1750    0.7894    0.0000 C   0  0  0  0  0  0  0  0  0  0  0  0
    6.4840   -0.1616    0.0000 C   0  0  0  0  0  0  0  0  0  0  0  0
    5.1810    0.7868    0.0000 C   0  0  0  0  0  0  0  0  0  0  0  0
    7.4622   -0.3695    0.0000 C   0  0  0  0  0  0  0  0  0  0  0  0
    4.8746   -0.1588    0.0000 C   0  0  0  0  0  0  0  0  0  0  0  0
    8.1313    0.3736    0.0000 C   0  0  0  0  0  0  0  0  0  0  0  0
    6.8442    1.5326    0.0000 C   0  0  0  0  0  0  0  0  0  0  0  0
    7.7688   -1.3650    0.0000 C   0  0  0  0  0  0  0  0  0  0  0  0
    4.4994    1.5664    0.0000 C   0  0  0  0  0  0  0  0  0  0  0  0
    3.8654   -0.3906    0.0000 C   0  0  0  0  0  0  0  0  0  0  0  0
    9.1534    0.1728    0.0000 C   0  0  0  0  0  0  0  0  0  0  0  0
    3.4851    1.3580    0.0000 C   0  0  0  0  0  0  0  0  0  0  0  0
    8.7859   -1.5894    0.0000 C   0  0  0  0  0  0  0  0  0  0  0  0
    9.4829   -0.8154    0.0000 C   0  0  0  0  0  0  0  0  0  0  0  0
    3.1660    0.3729    0.0000 C   0  0  0  0  0  0  0  0  0  0  0  0
   11.1281   -0.2738    0.0000 C   0  0  0  0  0  0  0  0  0  0  0  0
    4.6973    2.1539    0.0000 H   0  0  0  0  0  0  0  0  0  0  0  0
    3.6812   -0.9826    0.0000 H   0  0  0  0  0  0  0  0  0  0  0  0
    9.5629    0.6383    0.0000 H   0  0  0  0  0  0  0  0  0  0  0  0
    8.9753   -2.1798    0.0000 H   0  0  0  0  0  0  0  0  0  0  0  0
    7.2758   -2.6922    0.0000 H   0  0  0  0  0  0  0  0  0  0  0  0
    3.0115    2.6922    0.0000 H   0  0  0  0  0  0  0  0  0  0  0  0
    2.0000   -0.4301    0.0000 H   0  0  0  0  0  0  0  0  0  0  0  0
   11.5905   -0.6869    0.0000 H   0  0  0  0  0  0  0  0  0  0  0  0
   11.5412    0.1886    0.0000 H   0  0  0  0  0  0  0  0  0  0  0  0
   10.6658    0.1393    0.0000 H   0  0  0  0  0  0  0  0  0  0  0  0
  1  9  1  0  0  0  0
  1 12  1  0  0  0  0
  2 13  1  0  0  0  0
  2 14  1  0  0  0  0
  3 15  1  0  0  0  0
  3 28  1  0  0  0  0
  4 21  1  0  0  0  0
  4 23  1  0  0  0  0
  5 14  2  0  0  0  0
  6 19  1  0  0  0  0
  6 29  1  0  0  0  0
  7 22  1  0  0  0  0
  7 30  1  0  0  0  0
  8  9  2  0  0  0  0
  8 10  1  0  0  0  0
  8 14  1  0  0  0  0
  9 11  1  0  0  0  0
 10 12  1  0  0  0  0
 10 16  2  0  0  0  0
 11 13  1  0  0  0  0
 11 15  2  0  0  0  0
 12 17  2  0  0  0  0
 13 18  2  0  0  0  0
 15 20  1  0  0  0  0
 16 19  1  0  0  0  0
 16 24  1  0  0  0  0
 17 22  1  0  0  0  0
 17 25  1  0  0  0  0
 18 21  1  0  0  0  0
 18 26  1  0  0  0  0
 19 22  2  0  0  0  0
 20 21  2  0  0  0  0
 20 27  1  0  0  0  0
 23 31  1  0  0  0  0
 23 32  1  0  0  0  0
 23 33  1  0  0  0  0
M  END
> <PUBCHEM_COMPOUND_CID>
5281813

> <PUBCHEM_COMPOUND_CANONICALIZED>
1

> <PUBCHEM_CACTVS_COMPLEXITY>
483

> <PUBCHEM_CACTVS_HBOND_ACCEPTOR>
7

> <PUBCHEM_CACTVS_HBOND_DONOR>
3

> <PUBCHEM_CACTVS_ROTATABLE_BOND>
1

> <PUBCHEM_CACTVS_SUBSKEYS>
AAADccB4OAAAAAAAAAAAAAAAAAAAASAAAAA0YIAAAAAAAEiR9AAAGgAACAAADASAmAIyDsAABkCIAqDSCAACCAAkIAAAiAEGiMgNJzaONRqCe2Gl4BUJuYfL7PzOoQABCAAIQABCAAIQABCAAAAAAAAAAA==

> <PUBCHEM_IUPAC_OPENEYE_NAME>
1,8,9-trihydroxy-3-methoxy-benzofuro[3,2-c]chromen-6-one

> <PUBCHEM_IUPAC_CAS_NAME>
1,8,9-trihydroxy-3-methoxy-6-benzofuro[3,2-c][1]benzopyranone

> <PUBCHEM_IUPAC_NAME>
1,8,9-trihydroxy-3-methoxy-[1]benzofuro[3,2-c]chromen-6-one

> <PUBCHEM_IUPAC_SYSTEMATIC_NAME>
3-methoxy-1,8,9-tris(oxidanyl)-[1]benzofuro[3,2-c]chromen-6-one

> <PUBCHEM_IUPAC_TRADITIONAL_NAME>
1,8,9-trihydroxy-3-methoxy-benzofuro[3,2-c]chromen-6-one

> <PUBCHEM_IUPAC_INCHI>
InChI=1S/C16H10O7/c1-21-6-2-10(19)14-12(3-6)23-16(20)13-7-4-8(17)9(18)5-11(7)22-15(13)14/h2-5,17-19H,1H3

> <PUBCHEM_IUPAC_INCHIKEY>
XQDCKJKKMFWXGB-UHFFFAOYSA-N

> <PUBCHEM_XLOGP3_AA>
2.4

> <PUBCHEM_EXACT_MASS>
314.043

> <PUBCHEM_MOLECULAR_FORMULA>
C16H10O7

> <PUBCHEM_MOLECULAR_WEIGHT>
314.249

> <PUBCHEM_OPENEYE_CAN_SMILES>
COC1=CC(=C2C(=C1)OC(=O)C3=C2OC4=CC(=C(C=C43)O)O)O

> <PUBCHEM_OPENEYE_ISO_SMILES>
COC1=CC(=C2C(=C1)OC(=O)C3=C2OC4=CC(=C(C=C43)O)O)O

> <PUBCHEM_CACTVS_TPSA>
109

> <PUBCHEM_MONOISOTOPIC_WEIGHT>
314.043

> <PUBCHEM_TOTAL_CHARGE>
0

> <PUBCHEM_HEAVY_ATOM_COUNT>
23

> <PUBCHEM_ATOM_DEF_STEREO_COUNT>
0

> <PUBCHEM_ATOM_UDEF_STEREO_COUNT>
0

> <PUBCHEM_BOND_DEF_STEREO_COUNT>
0

> <PUBCHEM_BOND_UDEF_STEREO_COUNT>
0

> <PUBCHEM_ISOTOPIC_ATOM_COUNT>
0

> <PUBCHEM_COMPONENT_COUNT>
1

> <PUBCHEM_CACTVS_TAUTO_COUNT>
42

> <PUBCHEM_COORDINATE_TYPE>
1
5
255

> <PUBCHEM_BONDANNOTATIONS>
1  12  8
1  9  8
10  12  8
10  16  8
11  13  8
11  15  8
12  17  8
13  18  8
15  20  8
16  19  8
17  22  8
18  21  8
19  22  8
2  13  8
2  14  8
20  21  8
8  10  8
8  14  8
8  9  8
9  11  8

$$$$
4592
  -OEChem-11021605012D

 40 42  0     0  0  0  0  0  0999 V2000
    2.5369   -4.3450    0.0000 O   0  0  0  0  0  0  0  0  0  0  0  0
    6.9473   -1.6497    0.0000 N   0  0  0  0  0  0  0  0  0  0  0  0
    5.1350    1.1550    0.0000 N   0  0  0  0  0  0  0  0  0  0  0  0
    5.1350   -1.8450    0.0000 N   0  0  0  0  0  0  0  0  0  0  0  0
    6.9473   -0.0403    0.0000 N   0  0  0  0  0  0  0  0  0  0  0  0
    4.2690   -0.3450    0.0000 N   0  0  0  0  0  0  0  0  0  0  0  0
    3.4030   -1.8450    0.0000 N   0  0  0  0  0  0  0  0  0  0  0  0
    6.0010   -0.3450    0.0000 C   0  0  0  0  0  0  0  0  0  0  0  0
    6.0010   -1.3450    0.0000 C   0  0  0  0  0  0  0  0  0  0  0  0
    5.1350    0.1550    0.0000 C   0  0  0  0  0  0  0  0  0  0  0  0
    4.2690    1.6550    0.0000 C   0  0  0  0  0  0  0  0  0  0  0  0
    4.2690   -1.3450    0.0000 C   0  0  0  0  0  0  0  0  0  0  0  0
    7.5309   -0.8450    0.0000 C   0  0  0  0  0  0  0  0  0  0  0  0
    4.2690    2.6550    0.0000 C   0  0  0  0  0  0  0  0  0  0  0  0
    7.2579   -2.6002    0.0000 C   0  0  0  0  0  0  0  0  0  0  0  0
    3.4030   -2.8450    0.0000 C   0  0  0  0  0  0  0  0  0  0  0  0
    5.1350    3.1550    0.0000 C   0  0  0  0  0  0  0  0  0  0  0  0
    3.4030    3.1550    0.0000 C   0  0  0  0  0  0  0  0  0  0  0  0
    2.5369   -3.3450    0.0000 C   0  0  0  0  0  0  0  0  0  0  0  0
    5.1350    4.1550    0.0000 C   0  0  0  0  0  0  0  0  0  0  0  0
    3.4030    4.1550    0.0000 C   0  0  0  0  0  0  0  0  0  0  0  0
    4.2690    4.6550    0.0000 C   0  0  0  0  0  0  0  0  0  0  0  0
    3.6584    1.7627    0.0000 H   0  0  0  0  0  0  0  0  0  0  0  0
    4.0569    1.0724    0.0000 H   0  0  0  0  0  0  0  0  0  0  0  0
    5.6720    1.4650    0.0000 H   0  0  0  0  0  0  0  0  0  0  0  0
    8.1509   -0.8450    0.0000 H   0  0  0  0  0  0  0  0  0  0  0  0
    6.6686   -2.7929    0.0000 H   0  0  0  0  0  0  0  0  0  0  0  0
    7.4505   -3.1896    0.0000 H   0  0  0  0  0  0  0  0  0  0  0  0
    7.8472   -2.4076    0.0000 H   0  0  0  0  0  0  0  0  0  0  0  0
    2.8660   -1.5350    0.0000 H   0  0  0  0  0  0  0  0  0  0  0  0
    3.6150   -3.4276    0.0000 H   0  0  0  0  0  0  0  0  0  0  0  0
    4.0135   -2.7373    0.0000 H   0  0  0  0  0  0  0  0  0  0  0  0
    5.6720    2.8450    0.0000 H   0  0  0  0  0  0  0  0  0  0  0  0
    2.8660    2.8450    0.0000 H   0  0  0  0  0  0  0  0  0  0  0  0
    2.3249   -2.7624    0.0000 H   0  0  0  0  0  0  0  0  0  0  0  0
    1.9264   -3.4527    0.0000 H   0  0  0  0  0  0  0  0  0  0  0  0
    5.6720    4.4650    0.0000 H   0  0  0  0  0  0  0  0  0  0  0  0
    2.8660    4.4650    0.0000 H   0  0  0  0  0  0  0  0  0  0  0  0
    4.2690    5.2750    0.0000 H   0  0  0  0  0  0  0  0  0  0  0  0
    2.0000   -4.6550    0.0000 H   0  0  0  0  0  0  0  0  0  0  0  0
  1 19  1  0  0  0  0
  1 40  1  0  0  0  0
  2  9  1  0  0  0  0
  2 13  1  0  0  0  0
  2 15  1  0  0  0  0
  3 10  1  0  0  0  0
  3 11  1  0  0  0  0
  3 25  1  0  0  0  0
  4  9  2  0  0  0  0
  4 12  1  0  0  0  0
  5  8  1  0  0  0  0
  5 13  2  0  0  0  0
  6 10  1  0  0  0  0
  6 12  2  0  0  0  0
  7 12  1  0  0  0  0
  7 16  1  0  0  0  0
  7 30  1  0  0  0  0
  8  9  1  0  0  0  0
  8 10  2  0  0  0  0
 11 14  1  0  0  0  0
 11 23  1  0  0  0  0
 11 24  1  0  0  0  0
 13 26  1  0  0  0  0
 14 17  2  0  0  0  0
 14 18  1  0  0  0  0
 15 27  1  0  0  0  0
 15 28  1  0  0  0  0
 15 29  1  0  0  0  0
 16 19  1  0  0  0  0
 16 31  1  0  0  0  0
 16 32  1  0  0  0  0
 17 20  1  0  0  0  0
 17 33  1  0  0  0  0
 18 21  2  0  0  0  0
 18 34  1  0  0  0  0
 19 35  1  0  0  0  0
 19 36  1  0  0  0  0
 20 22  2  0  0  0  0
 20 37  1  0  0  0  0
 21 22  1  0  0  0  0
 21 38  1  0  0  0  0
 22 39  1  0  0  0  0
M  END
> <PUBCHEM_COMPOUND_CID>
4592

> <PUBCHEM_COMPOUND_CANONICALIZED>
1

> <PUBCHEM_CACTVS_COMPLEXITY>
338

> <PUBCHEM_CACTVS_HBOND_ACCEPTOR>
6

> <PUBCHEM_CACTVS_HBOND_DONOR>
3

> <PUBCHEM_CACTVS_ROTATABLE_BOND>
6

> <PUBCHEM_CACTVS_SUBSKEYS>
AAADceBzoAAAAAAAAAAAAAAAAAAAAWAAAAA8QAAAAAAAAFgB/AAAHgAQCAAADAjhnwY38L/MEgCgAyZjZACCgC0xEKAJ2KAoVJiKeCLA2VGUJAhokALYiCcQgAAOAAAAAAAAAAAAAAAAAAAAAAAAAAAAAA==

> <PUBCHEM_IUPAC_OPENEYE_NAME>
2-[[6-(benzylamino)-9-methyl-purin-2-yl]amino]ethanol

> <PUBCHEM_IUPAC_CAS_NAME>
2-[[9-methyl-6-[(phenylmethyl)amino]-2-purinyl]amino]ethanol

> <PUBCHEM_IUPAC_NAME>
2-[[6-(benzylamino)-9-methylpurin-2-yl]amino]ethanol

> <PUBCHEM_IUPAC_SYSTEMATIC_NAME>
2-[[9-methyl-6-[(phenylmethyl)amino]purin-2-yl]amino]ethanol

> <PUBCHEM_IUPAC_TRADITIONAL_NAME>
2-[[6-(benzylamino)-9-methyl-purin-2-yl]amino]ethanol

> <PUBCHEM_IUPAC_INCHI>
InChI=1S/C15H18N6O/c1-21-10-18-12-13(17-9-11-5-3-2-4-6-11)19-15(16-7-8-22)20-14(12)21/h2-6,10,22H,7-9H2,1H3,(H2,16,17,19,20)

> <PUBCHEM_IUPAC_INCHIKEY>
GTVPOLSIJWJJNY-UHFFFAOYSA-N

> <PUBCHEM_XLOGP3_AA>
1.5

> <PUBCHEM_EXACT_MASS>
298.154

> <PUBCHEM_MOLECULAR_FORMULA>
C15H18N6O

> <PUBCHEM_MOLECULAR_WEIGHT>
298.35

> <PUBCHEM_OPENEYE_CAN_SMILES>
CN1C=NC2=C1N=C(N=C2NCC3=CC=CC=C3)NCCO

> <PUBCHEM_OPENEYE_ISO_SMILES>
CN1C=NC2=C1N=C(N=C2NCC3=CC=CC=C3)NCCO

> <PUBCHEM_CACTVS_TPSA>
87.9

> <PUBCHEM_MONOISOTOPIC_WEIGHT>
298.154

> <PUBCHEM_TOTAL_CHARGE>
0

> <PUBCHEM_HEAVY_ATOM_COUNT>
22

> <PUBCHEM_ATOM_DEF_STEREO_COUNT>
0

> <PUBCHEM_ATOM_UDEF_STEREO_COUNT>
0

> <PUBCHEM_BOND_DEF_STEREO_COUNT>
0

> <PUBCHEM_BOND_UDEF_STEREO_COUNT>
0

> <PUBCHEM_ISOTOPIC_ATOM_COUNT>
0

> <PUBCHEM_COMPONENT_COUNT>
1

> <PUBCHEM_CACTVS_TAUTO_COUNT>
6

> <PUBCHEM_COORDINATE_TYPE>
1
5
255

> <PUBCHEM_BONDANNOTATIONS>
14  17  8
14  18  8
17  20  8
18  21  8
2  13  8
2  9  8
20  22  8
21  22  8
4  12  8
4  9  8
5  13  8
5  8  8
6  10  8
6  12  8
8  10  8
8  9  8

$$$$
2426
  -OEChem-11021605012D

 32 34  0     0  0  0  0  0  0999 V2000
    7.7146   -3.3372    0.0000 Br  0  0  0  0  0  0  0  0  0  0  0  0
    6.0174   -0.3174    0.0000 N   0  0  0  0  0  0  0  0  0  0  0  0
    6.0290    2.7519    0.0000 N   0  0  0  0  0  0  0  0  0  0  0  0
    6.9350    1.1964    0.0000 N   0  0  0  0  0  0  0  0  0  0  0  0
    2.5369    0.7172    0.0000 N   0  0  0  0  0  0  0  0  0  0  0  0
    2.5369    2.7172    0.0000 N   0  0  0  0  0  0  0  0  0  0  0  0
    5.1350    1.2172    0.0000 C   0  0  0  0  0  0  0  0  0  0  0  0
    5.1350    2.2172    0.0000 C   0  0  0  0  0  0  0  0  0  0  0  0
    6.0290    0.6826    0.0000 C   0  0  0  0  0  0  0  0  0  0  0  0
    4.2690    0.7172    0.0000 C   0  0  0  0  0  0  0  0  0  0  0  0
    3.4030    1.2172    0.0000 C   0  0  0  0  0  0  0  0  0  0  0  0
    3.4030    2.2172    0.0000 C   0  0  0  0  0  0  0  0  0  0  0  0
    4.2690    2.7172    0.0000 C   0  0  0  0  0  0  0  0  0  0  0  0
    6.8776   -0.8274    0.0000 C   0  0  0  0  0  0  0  0  0  0  0  0
    6.8660   -1.8273    0.0000 C   0  0  0  0  0  0  0  0  0  0  0  0
    7.7493   -0.3374    0.0000 C   0  0  0  0  0  0  0  0  0  0  0  0
    6.9350    2.2380    0.0000 C   0  0  0  0  0  0  0  0  0  0  0  0
    7.7262   -2.3373    0.0000 C   0  0  0  0  0  0  0  0  0  0  0  0
    8.6095   -0.8474    0.0000 C   0  0  0  0  0  0  0  0  0  0  0  0
    8.5980   -1.8473    0.0000 C   0  0  0  0  0  0  0  0  0  0  0  0
    4.2690    0.0972    0.0000 H   0  0  0  0  0  0  0  0  0  0  0  0
    4.2690    3.3372    0.0000 H   0  0  0  0  0  0  0  0  0  0  0  0
    5.4769   -0.6212    0.0000 H   0  0  0  0  0  0  0  0  0  0  0  0
    6.3255   -2.1311    0.0000 H   0  0  0  0  0  0  0  0  0  0  0  0
    7.7565    0.2825    0.0000 H   0  0  0  0  0  0  0  0  0  0  0  0
    7.4708    2.5501    0.0000 H   0  0  0  0  0  0  0  0  0  0  0  0
    2.0000    1.0272    0.0000 H   0  0  0  0  0  0  0  0  0  0  0  0
    2.5369    0.0972    0.0000 H   0  0  0  0  0  0  0  0  0  0  0  0
    2.5369    3.3372    0.0000 H   0  0  0  0  0  0  0  0  0  0  0  0
    2.0000    2.4072    0.0000 H   0  0  0  0  0  0  0  0  0  0  0  0
    9.1500   -0.5436    0.0000 H   0  0  0  0  0  0  0  0  0  0  0  0
    9.1313   -2.1635    0.0000 H   0  0  0  0  0  0  0  0  0  0  0  0
  1 18  1  0  0  0  0
  2  9  1  0  0  0  0
  2 14  1  0  0  0  0
  2 23  1  0  0  0  0
  3  8  1  0  0  0  0
  3 17  2  0  0  0  0
  4  9  2  0  0  0  0
  4 17  1  0  0  0  0
  5 11  1  0  0  0  0
  5 27  1  0  0  0  0
  5 28  1  0  0  0  0
  6 12  1  0  0  0  0
  6 29  1  0  0  0  0
  6 30  1  0  0  0  0
  7  8  1  0  0  0  0
  7  9  1  0  0  0  0
  7 10  2  0  0  0  0
  8 13  2  0  0  0  0
 10 11  1  0  0  0  0
 10 21  1  0  0  0  0
 11 12  2  0  0  0  0
 12 13  1  0  0  0  0
 13 22  1  0  0  0  0
 14 15  2  0  0  0  0
 14 16  1  0  0  0  0
 15 18  1  0  0  0  0
 15 24  1  0  0  0  0
 16 19  2  0  0  0  0
 16 25  1  0  0  0  0
 17 26  1  0  0  0  0
 18 20  2  0  0  0  0
 19 20  1  0  0  0  0
 19 31  1  0  0  0  0
 20 32  1  0  0  0  0
M  END
> <PUBCHEM_COMPOUND_CID>
2426

> <PUBCHEM_COMPOUND_CANONICALIZED>
1

> <PUBCHEM_CACTVS_COMPLEXITY>
329

> <PUBCHEM_CACTVS_HBOND_ACCEPTOR>
5

> <PUBCHEM_CACTVS_HBOND_DONOR>
3

> <PUBCHEM_CACTVS_ROTATABLE_BOND>
2

> <PUBCHEM_CACTVS_SUBSKEYS>
AAADccBzgAAAEAAAAAAAAAAAAAAAAAAAAAA8YIAAAAAAAACx9AAAHABQAAABrAiBHgQ18PbIEACgAyZjZACCgCkxAqQJ2CA4dLiIaOLA2dGEJAhokALIyjcQgAAOCACAQAUCACAQAQCACgQAQAAAAAAAAA==

> <PUBCHEM_IUPAC_OPENEYE_NAME>
N4-(3-bromophenyl)quinazoline-4,6,7-triamine

> <PUBCHEM_IUPAC_CAS_NAME>
N4-(3-bromophenyl)quinazoline-4,6,7-triamine

> <PUBCHEM_IUPAC_NAME>
4-N-(3-bromophenyl)quinazoline-4,6,7-triamine

> <PUBCHEM_IUPAC_SYSTEMATIC_NAME>
N4-(3-bromophenyl)quinazoline-4,6,7-triamine

> <PUBCHEM_IUPAC_TRADITIONAL_NAME>
(3-bromophenyl)-(6,7-diaminoquinazolin-4-yl)amine

> <PUBCHEM_IUPAC_INCHI>
InChI=1S/C14H12BrN5/c15-8-2-1-3-9(4-8)20-14-10-5-11(16)12(17)6-13(10)18-7-19-14/h1-7H,16-17H2,(H,18,19,20)

> <PUBCHEM_IUPAC_INCHIKEY>
ADXSZLCTQCWMTE-UHFFFAOYSA-N

> <PUBCHEM_XLOGP3_AA>
2.7

> <PUBCHEM_EXACT_MASS>
329.028

> <PUBCHEM_MOLECULAR_FORMULA>
C14H12BrN5

> <PUBCHEM_MOLECULAR_WEIGHT>
330.189

> <PUBCHEM_OPENEYE_CAN_SMILES>
C1=CC(=CC(=C1)Br)NC2=NC=NC3=CC(=C(C=C32)N)N

> <PUBCHEM_OPENEYE_ISO_SMILES>
C1=CC(=CC(=C1)Br)NC2=NC=NC3=CC(=C(C=C32)N)N

> <PUBCHEM_CACTVS_TPSA>
89.8

> <PUBCHEM_MONOISOTOPIC_WEIGHT>
329.028

> <PUBCHEM_TOTAL_CHARGE>
0

> <PUBCHEM_HEAVY_ATOM_COUNT>
20

> <PUBCHEM_ATOM_DEF_STEREO_COUNT>
0

> <PUBCHEM_ATOM_UDEF_STEREO_COUNT>
0

> <PUBCHEM_BOND_DEF_STEREO_COUNT>
0

> <PUBCHEM_BOND_UDEF_STEREO_COUNT>
0

> <PUBCHEM_ISOTOPIC_ATOM_COUNT>
0

> <PUBCHEM_COMPONENT_COUNT>
1

> <PUBCHEM_CACTVS_TAUTO_COUNT>
33

> <PUBCHEM_COORDINATE_TYPE>
1
5
255

> <PUBCHEM_BONDANNOTATIONS>
10  11  8
11  12  8
12  13  8
14  15  8
14  16  8
15  18  8
16  19  8
18  20  8
19  20  8
3  17  8
3  8  8
4  17  8
4  9  8
7  10  8
7  8  8
7  9  8
8  13  8

$$$$
4877
  -OEChem-11021605012D

 43 46  0     0  0  0  0  0  0999 V2000
    5.2006   -1.4753    0.0000 N   0  0  0  0  0  0  0  0  0  0  0  0
    5.5053   -0.5290    0.0000 N   0  0  0  0  0  0  0  0  0  0  0  0
    3.5387   -2.2239    0.0000 N   0  0  0  0  0  0  0  0  0  0  0  0
    2.2495   -1.0671    0.0000 N   0  0  0  0  0  0  0  0  0  0  0  0
    2.6067    0.6277    0.0000 N   0  0  0  0  0  0  0  0  0  0  0  0
    5.7912   -2.2822    0.0000 C   0  0  0  0  0  0  0  0  0  0  0  0
    4.2065   -1.4796    0.0000 C   0  0  0  0  0  0  0  0  0  0  0  0
    6.3817   -3.0892    0.0000 C   0  0  0  0  0  0  0  0  0  0  0  0
    6.5981   -1.6917    0.0000 C   0  0  0  0  0  0  0  0  0  0  0  0
    4.9842   -2.8728    0.0000 C   0  0  0  0  0  0  0  0  0  0  0  0
    3.8958   -0.5290    0.0000 C   0  0  0  0  0  0  0  0  0  0  0  0
    4.7006    0.0546    0.0000 C   0  0  0  0  0  0  0  0  0  0  0  0
    4.7006    1.0546    0.0000 C   0  0  0  0  0  0  0  0  0  0  0  0
    5.5666    1.5546    0.0000 C   0  0  0  0  0  0  0  0  0  0  0  0
    2.9173   -0.3228    0.0000 C   0  0  0  0  0  0  0  0  0  0  0  0
    5.5666    2.5546    0.0000 C   0  0  0  0  0  0  0  0  0  0  0  0
    3.8346    1.5546    0.0000 C   0  0  0  0  0  0  0  0  0  0  0  0
    6.4605    1.0199    0.0000 C   0  0  0  0  0  0  0  0  0  0  0  0
    4.7006    3.0546    0.0000 C   0  0  0  0  0  0  0  0  0  0  0  0
    3.8346    2.5546    0.0000 C   0  0  0  0  0  0  0  0  0  0  0  0
    2.5602   -2.0176    0.0000 C   0  0  0  0  0  0  0  0  0  0  0  0
    6.4605    3.0892    0.0000 C   0  0  0  0  0  0  0  0  0  0  0  0
    7.3666    1.5338    0.0000 C   0  0  0  0  0  0  0  0  0  0  0  0
    7.3666    2.5754    0.0000 C   0  0  0  0  0  0  0  0  0  0  0  0
    5.8814   -3.4554    0.0000 H   0  0  0  0  0  0  0  0  0  0  0  0
    6.7479   -3.5896    0.0000 H   0  0  0  0  0  0  0  0  0  0  0  0
    4.6180   -2.3725    0.0000 H   0  0  0  0  0  0  0  0  0  0  0  0
    4.4838   -3.2390    0.0000 H   0  0  0  0  0  0  0  0  0  0  0  0
    5.3503   -3.3732    0.0000 H   0  0  0  0  0  0  0  0  0  0  0  0
    6.9643   -2.1920    0.0000 H   0  0  0  0  0  0  0  0  0  0  0  0
    7.0985   -1.3255    0.0000 H   0  0  0  0  0  0  0  0  0  0  0  0
    6.2320   -1.1913    0.0000 H   0  0  0  0  0  0  0  0  0  0  0  0
    6.8821   -2.7231    0.0000 H   0  0  0  0  0  0  0  0  0  0  0  0
    3.2976    1.2446    0.0000 H   0  0  0  0  0  0  0  0  0  0  0  0
    6.4534    0.3999    0.0000 H   0  0  0  0  0  0  0  0  0  0  0  0
    4.7006    3.6746    0.0000 H   0  0  0  0  0  0  0  0  0  0  0  0
    3.2976    2.8646    0.0000 H   0  0  0  0  0  0  0  0  0  0  0  0
    2.1461   -2.4791    0.0000 H   0  0  0  0  0  0  0  0  0  0  0  0
    6.4534    3.7092    0.0000 H   0  0  0  0  0  0  0  0  0  0  0  0
    2.0000    0.7555    0.0000 H   0  0  0  0  0  0  0  0  0  0  0  0
    3.0207    1.0892    0.0000 H   0  0  0  0  0  0  0  0  0  0  0  0
    7.9024    1.2217    0.0000 H   0  0  0  0  0  0  0  0  0  0  0  0
    7.9024    2.8874    0.0000 H   0  0  0  0  0  0  0  0  0  0  0  0
  1  2  1  0  0  0  0
  1  6  1  0  0  0  0
  1  7  1  0  0  0  0
  2 12  2  0  0  0  0
  3  7  2  0  0  0  0
  3 21  1  0  0  0  0
  4 15  1  0  0  0  0
  4 21  2  0  0  0  0
  5 15  1  0  0  0  0
  5 40  1  0  0  0  0
  5 41  1  0  0  0  0
  6  8  1  0  0  0  0
  6  9  1  0  0  0  0
  6 10  1  0  0  0  0
  7 11  1  0  0  0  0
  8 25  1  0  0  0  0
  8 26  1  0  0  0  0
  8 33  1  0  0  0  0
  9 30  1  0  0  0  0
  9 31  1  0  0  0  0
  9 32  1  0  0  0  0
 10 27  1  0  0  0  0
 10 28  1  0  0  0  0
 10 29  1  0  0  0  0
 11 12  1  0  0  0  0
 11 15  2  0  0  0  0
 12 13  1  0  0  0  0
 13 14  1  0  0  0  0
 13 17  2  0  0  0  0
 14 16  1  0  0  0  0
 14 18  2  0  0  0  0
 16 19  1  0  0  0  0
 16 22  2  0  0  0  0
 17 20  1  0  0  0  0
 17 34  1  0  0  0  0
 18 23  1  0  0  0  0
 18 35  1  0  0  0  0
 19 20  2  0  0  0  0
 19 36  1  0  0  0  0
 20 37  1  0  0  0  0
 21 38  1  0  0  0  0
 22 24  1  0  0  0  0
 22 39  1  0  0  0  0
 23 24  2  0  0  0  0
 23 42  1  0  0  0  0
 24 43  1  0  0  0  0
M  END
> <PUBCHEM_COMPOUND_CID>
4877

> <PUBCHEM_COMPOUND_CANONICALIZED>
1

> <PUBCHEM_CACTVS_COMPLEXITY>
448

> <PUBCHEM_CACTVS_HBOND_ACCEPTOR>
4

> <PUBCHEM_CACTVS_HBOND_DONOR>
1

> <PUBCHEM_CACTVS_ROTATABLE_BOND>
2

> <PUBCHEM_CACTVS_SUBSKEYS>
AAADceB7gAAAAAAAAAAAAAAAAAAAAWAAAAA8YIAAAAAAAFjB/AAAHAAYAAAADIiBHwQ3sN5IEACiAyZjZACShCsxAKAd2CAoRJiIKKLA2dGEpAhoiALIyCcQgMAOgAACAAAQAAAAAAQAACAAAAAAAAAAAA==

> <PUBCHEM_IUPAC_OPENEYE_NAME>
1-tert-butyl-3-(1-naphthyl)pyrazolo[3,4-d]pyrimidin-4-amine

> <PUBCHEM_IUPAC_CAS_NAME>
1-tert-butyl-3-(1-naphthalenyl)-4-pyrazolo[3,4-d]pyrimidinamine

> <PUBCHEM_IUPAC_NAME>
1-tert-butyl-3-naphthalen-1-ylpyrazolo[3,4-d]pyrimidin-4-amine

> <PUBCHEM_IUPAC_SYSTEMATIC_NAME>
1-tert-butyl-3-naphthalen-1-yl-pyrazolo[3,4-d]pyrimidin-4-amine

> <PUBCHEM_IUPAC_TRADITIONAL_NAME>
[1-tert-butyl-3-(1-naphthyl)pyrazolo[3,4-d]pyrimidin-4-yl]amine

> <PUBCHEM_IUPAC_INCHI>
InChI=1S/C19H19N5/c1-19(2,3)24-18-15(17(20)21-11-22-18)16(23-24)14-10-6-8-12-7-4-5-9-13(12)14/h4-11H,1-3H3,(H2,20,21,22)

> <PUBCHEM_IUPAC_INCHIKEY>
XSHQBIXMLULFEV-UHFFFAOYSA-N

> <PUBCHEM_XLOGP3_AA>
3.6

> <PUBCHEM_EXACT_MASS>
317.164

> <PUBCHEM_MOLECULAR_FORMULA>
C19H19N5

> <PUBCHEM_MOLECULAR_WEIGHT>
317.396

> <PUBCHEM_OPENEYE_CAN_SMILES>
CC(C)(C)N1C2=C(C(=N1)C3=CC=CC4=CC=CC=C43)C(=NC=N2)N

> <PUBCHEM_OPENEYE_ISO_SMILES>
CC(C)(C)N1C2=C(C(=N1)C3=CC=CC4=CC=CC=C43)C(=NC=N2)N

> <PUBCHEM_CACTVS_TPSA>
69.6

> <PUBCHEM_MONOISOTOPIC_WEIGHT>
317.164

> <PUBCHEM_TOTAL_CHARGE>
0

> <PUBCHEM_HEAVY_ATOM_COUNT>
24

> <PUBCHEM_ATOM_DEF_STEREO_COUNT>
0

> <PUBCHEM_ATOM_UDEF_STEREO_COUNT>
0

> <PUBCHEM_BOND_DEF_STEREO_COUNT>
0

> <PUBCHEM_BOND_UDEF_STEREO_COUNT>
0

> <PUBCHEM_ISOTOPIC_ATOM_COUNT>
0

> <PUBCHEM_COMPONENT_COUNT>
1

> <PUBCHEM_CACTVS_TAUTO_COUNT>
5

> <PUBCHEM_COORDINATE_TYPE>
1
5
255

> <PUBCHEM_BONDANNOTATIONS>
1  2  8
1  7  8
11  12  8
11  15  8
13  14  8
13  17  8
14  16  8
14  18  8
16  19  8
16  22  8
17  20  8
18  23  8
19  20  8
2  12  8
22  24  8
23  24  8
3  21  8
3  7  8
4  15  8
4  21  8
7  11  8

$$$$
9861903
  -OEChem-11021605012D

 33 33  0     0  0  0  0  0  0999 V2000
    7.0393    7.6546    0.0000 Cl  0  0  0  0  0  0  0  0  0  0  0  0
    0.0000    3.5746    0.0000 Cl  0  0  0  0  0  0  0  0  0  0  0  0
    5.2909    3.6200    0.0000 S   0  0  0  0  0  0  0  0  0  0  0  0
    4.2909    3.6200    0.0000 O   0  0  0  0  0  0  0  0  0  0  0  0
    6.2909    3.6200    0.0000 O   0  0  0  0  0  0  0  0  0  0  0  0
    5.2909    2.6200    0.0000 N   0  0  0  0  0  0  0  0  0  0  0  0
    3.5588    0.6200    0.0000 N   0  0  0  0  0  0  0  0  0  0  0  0
    5.2909    4.6200    0.0000 C   0  0  0  0  0  0  0  0  0  0  0  0
    6.1569    5.1200    0.0000 C   0  0  0  0  0  0  0  0  0  0  0  0
    6.1569    6.1200    0.0000 C   0  0  0  0  0  0  0  0  0  0  0  0
    4.4249    5.1200    0.0000 C   0  0  0  0  0  0  0  0  0  0  0  0
    4.4249    2.1200    0.0000 C   0  0  0  0  0  0  0  0  0  0  0  0
    7.0509    4.5853    0.0000 C   0  0  0  0  0  0  0  0  0  0  0  0
    5.2909    6.6200    0.0000 C   0  0  0  0  0  0  0  0  0  0  0  0
    4.4249    6.1200    0.0000 C   0  0  0  0  0  0  0  0  0  0  0  0
    7.0509    6.6547    0.0000 C   0  0  0  0  0  0  0  0  0  0  0  0
    4.4249    1.1200    0.0000 C   0  0  0  0  0  0  0  0  0  0  0  0
    7.9569    5.0992    0.0000 C   0  0  0  0  0  0  0  0  0  0  0  0
    7.9569    6.1408    0.0000 C   0  0  0  0  0  0  0  0  0  0  0  0
    5.8278    2.3100    0.0000 H   0  0  0  0  0  0  0  0  0  0  0  0
    3.8879    4.8100    0.0000 H   0  0  0  0  0  0  0  0  0  0  0  0
    4.2128    2.7026    0.0000 H   0  0  0  0  0  0  0  0  0  0  0  0
    3.8143    2.0123    0.0000 H   0  0  0  0  0  0  0  0  0  0  0  0
    7.0437    3.9654    0.0000 H   0  0  0  0  0  0  0  0  0  0  0  0
    5.2909    7.2400    0.0000 H   0  0  0  0  0  0  0  0  0  0  0  0
    3.8879    6.4300    0.0000 H   0  0  0  0  0  0  0  0  0  0  0  0
    4.6369    0.5374    0.0000 H   0  0  0  0  0  0  0  0  0  0  0  0
    5.0354    1.2277    0.0000 H   0  0  0  0  0  0  0  0  0  0  0  0
    8.4927    4.7871    0.0000 H   0  0  0  0  0  0  0  0  0  0  0  0
    8.4927    6.4529    0.0000 H   0  0  0  0  0  0  0  0  0  0  0  0
    3.5588    0.0000    0.0000 H   0  0  0  0  0  0  0  0  0  0  0  0
    3.0219    0.9300    0.0000 H   0  0  0  0  0  0  0  0  0  0  0  0
    1.0000    3.5746    0.0000 H   0  0  0  0  0  0  0  0  0  0  0  0
  1 16  1  0  0  0  0
  2 33  1  0  0  0  0
  3  4  2  0  0  0  0
  3  5  2  0  0  0  0
  3  6  1  0  0  0  0
  3  8  1  0  0  0  0
  6 12  1  0  0  0  0
  6 20  1  0  0  0  0
  7 17  1  0  0  0  0
  7 31  1  0  0  0  0
  7 32  1  0  0  0  0
  8  9  1  0  0  0  0
  8 11  2  0  0  0  0
  9 10  2  0  0  0  0
  9 13  1  0  0  0  0
 10 14  1  0  0  0  0
 10 16  1  0  0  0  0
 11 15  1  0  0  0  0
 11 21  1  0  0  0  0
 12 17  1  0  0  0  0
 12 22  1  0  0  0  0
 12 23  1  0  0  0  0
 13 18  2  0  0  0  0
 13 24  1  0  0  0  0
 14 15  2  0  0  0  0
 14 25  1  0  0  0  0
 15 26  1  0  0  0  0
 16 19  2  0  0  0  0
 17 27  1  0  0  0  0
 17 28  1  0  0  0  0
 18 19  1  0  0  0  0
 18 29  1  0  0  0  0
 19 30  1  0  0  0  0
M  END
> <PUBCHEM_COMPOUND_CID>
9861903

> <PUBCHEM_COMPOUND_CANONICALIZED>
1

> <PUBCHEM_CACTVS_COMPLEXITY>
369

> <PUBCHEM_CACTVS_HBOND_ACCEPTOR>
4

> <PUBCHEM_CACTVS_HBOND_DONOR>
3

> <PUBCHEM_CACTVS_ROTATABLE_BOND>
4

> <PUBCHEM_CACTVS_SUBSKEYS>
AAADccBzMABGAAAAAAAAAAAAAAAAAAAAAAAwYAAAAAAAAADBUAAAHAYQQAAADALBWCQwAcBAAAKAAiBCAHBCABAgBQAIiJgAAogIYCKBExCAIAAgkAAIiAcAgIAOgAAAoAAVAAAAAAFAACoAAAAAAAAAAA==

> <PUBCHEM_IUPAC_OPENEYE_NAME>
N-(2-aminoethyl)-5-chloro-naphthalene-1-sulfonamide;hydrochloride

> <PUBCHEM_IUPAC_CAS_NAME>
N-(2-aminoethyl)-5-chloro-1-naphthalenesulfonamide;hydrochloride

> <PUBCHEM_IUPAC_NAME>
N-(2-aminoethyl)-5-chloronaphthalene-1-sulfonamide;hydrochloride

> <PUBCHEM_IUPAC_SYSTEMATIC_NAME>
N-(2-azanylethyl)-5-chloranyl-naphthalene-1-sulfonamide;hydrochloride

> <PUBCHEM_IUPAC_TRADITIONAL_NAME>
N-(2-aminoethyl)-5-chloro-naphthalene-1-sulfonamide;hydrochloride

> <PUBCHEM_IUPAC_INCHI>
InChI=1S/C12H13ClN2O2S.ClH/c13-11-5-1-4-10-9(11)3-2-6-12(10)18(16,17)15-8-7-14;/h1-6,15H,7-8,14H2;1H

> <PUBCHEM_IUPAC_INCHIKEY>
VWAGIWCLJAQLAL-UHFFFAOYSA-N

> <PUBCHEM_EXACT_MASS>
320.015

> <PUBCHEM_MOLECULAR_FORMULA>
C12H14Cl2N2O2S

> <PUBCHEM_MOLECULAR_WEIGHT>
321.216

> <PUBCHEM_OPENEYE_CAN_SMILES>
C1=CC2=C(C=CC=C2Cl)C(=C1)S(=O)(=O)NCCN.Cl

> <PUBCHEM_OPENEYE_ISO_SMILES>
C1=CC2=C(C=CC=C2Cl)C(=C1)S(=O)(=O)NCCN.Cl

> <PUBCHEM_CACTVS_TPSA>
80.6

> <PUBCHEM_MONOISOTOPIC_WEIGHT>
320.015

> <PUBCHEM_TOTAL_CHARGE>
0

> <PUBCHEM_HEAVY_ATOM_COUNT>
19

> <PUBCHEM_ATOM_DEF_STEREO_COUNT>
0

> <PUBCHEM_ATOM_UDEF_STEREO_COUNT>
0

> <PUBCHEM_BOND_DEF_STEREO_COUNT>
0

> <PUBCHEM_BOND_UDEF_STEREO_COUNT>
0

> <PUBCHEM_ISOTOPIC_ATOM_COUNT>
0

> <PUBCHEM_COMPONENT_COUNT>
2

> <PUBCHEM_CACTVS_TAUTO_COUNT>
1

> <PUBCHEM_COORDINATE_TYPE>
1
5
255

> <PUBCHEM_BONDANNOTATIONS>
10  14  8
10  16  8
11  15  8
13  18  8
14  15  8
16  19  8
18  19  8
8  11  8
8  9  8
9  10  8
9  13  8

$$$$
73292
  -OEChem-11021605012D

 33 36  0     0  0  0  0  0  0999 V2000
    3.9146    0.0000    0.0000 Cl  0  5  0  0  0  0  0  0  0  0  0  0
    4.0148    3.3002    0.0000 O   0  0  0  0  0  0  0  0  0  0  0  0
    5.3395    5.5163    0.0000 N   0  3  0  0  0  0  0  0  0  0  0  0
    2.6612    5.2116    0.0000 N   0  0  0  0  0  0  0  0  0  0  0  0
    4.4734    5.0163    0.0000 C   0  0  0  0  0  0  0  0  0  0  0  0
    3.6074    5.5163    0.0000 C   0  0  0  0  0  0  0  0  0  0  0  0
    3.6074    6.5163    0.0000 C   0  0  0  0  0  0  0  0  0  0  0  0
    6.0765    4.8492    0.0000 C   0  0  0  0  0  0  0  0  0  0  0  0
    2.6612    6.8211    0.0000 C   0  0  0  0  0  0  0  0  0  0  0  0
    5.6714    3.9414    0.0000 C   0  0  0  0  0  0  0  0  0  0  0  0
    2.0776    6.0163    0.0000 C   0  0  0  0  0  0  0  0  0  0  0  0
    4.6826    4.0445    0.0000 C   0  0  0  0  0  0  0  0  0  0  0  0
    5.3395    6.5163    0.0000 C   0  0  0  0  0  0  0  0  0  0  0  0
    4.4734    7.0163    0.0000 C   0  0  0  0  0  0  0  0  0  0  0  0
    7.1046    4.9724    0.0000 C   0  0  0  0  0  0  0  0  0  0  0  0
    2.2538    7.7730    0.0000 C   0  0  0  0  0  0  0  0  0  0  0  0
    6.2663    3.0940    0.0000 C   0  0  0  0  0  0  0  0  0  0  0  0
    1.0462    6.1078    0.0000 C   0  0  0  0  0  0  0  0  0  0  0  0
    7.7189    4.1389    0.0000 C   0  0  0  0  0  0  0  0  0  0  0  0
    1.2248    7.8883    0.0000 C   0  0  0  0  0  0  0  0  0  0  0  0
    7.2970    3.1934    0.0000 C   0  0  0  0  0  0  0  0  0  0  0  0
    0.6169    7.0501    0.0000 C   0  0  0  0  0  0  0  0  0  0  0  0
    2.4686    4.6223    0.0000 H   0  0  0  0  0  0  0  0  0  0  0  0
    5.8764    6.8263    0.0000 H   0  0  0  0  0  0  0  0  0  0  0  0
    4.4734    7.6363    0.0000 H   0  0  0  0  0  0  0  0  0  0  0  0
    7.3507    5.5415    0.0000 H   0  0  0  0  0  0  0  0  0  0  0  0
    2.6236    8.2707    0.0000 H   0  0  0  0  0  0  0  0  0  0  0  0
    6.0071    2.5307    0.0000 H   0  0  0  0  0  0  0  0  0  0  0  0
    0.6880    5.6017    0.0000 H   0  0  0  0  0  0  0  0  0  0  0  0
    8.3353    4.2056    0.0000 H   0  0  0  0  0  0  0  0  0  0  0  0
    0.9743    8.4555    0.0000 H   0  0  0  0  0  0  0  0  0  0  0  0
    7.6590    2.6900    0.0000 H   0  0  0  0  0  0  0  0  0  0  0  0
    0.0000    7.1120    0.0000 H   0  0  0  0  0  0  0  0  0  0  0  0
  2 12  2  0  0  0  0
  3  5  2  0  0  0  0
  3  8  1  0  0  0  0
  3 13  1  0  0  0  0
  4  6  1  0  0  0  0
  4 11  1  0  0  0  0
  4 23  1  0  0  0  0
  5  6  1  0  0  0  0
  5 12  1  0  0  0  0
  6  7  2  0  0  0  0
  7  9  1  0  0  0  0
  7 14  1  0  0  0  0
  8 10  1  0  0  0  0
  8 15  2  0  0  0  0
  9 11  1  0  0  0  0
  9 16  2  0  0  0  0
 10 12  1  0  0  0  0
 10 17  2  0  0  0  0
 11 18  2  0  0  0  0
 13 14  2  0  0  0  0
 13 24  1  0  0  0  0
 14 25  1  0  0  0  0
 15 19  1  0  0  0  0
 15 26  1  0  0  0  0
 16 20  1  0  0  0  0
 16 27  1  0  0  0  0
 17 21  1  0  0  0  0
 17 28  1  0  0  0  0
 18 22  1  0  0  0  0
 18 29  1  0  0  0  0
 19 21  2  0  0  0  0
 19 30  1  0  0  0  0
 20 22  2  0  0  0  0
 20 31  1  0  0  0  0
 21 32  1  0  0  0  0
 22 33  1  0  0  0  0
M  CHG  2   1  -1   3   1
M  END
> <PUBCHEM_COMPOUND_CID>
73292

> <PUBCHEM_COMPOUND_CANONICALIZED>
1

> <PUBCHEM_CACTVS_COMPLEXITY>
451

> <PUBCHEM_CACTVS_HBOND_ACCEPTOR>
2

> <PUBCHEM_CACTVS_HBOND_DONOR>
1

> <PUBCHEM_CACTVS_ROTATABLE_BOND>
0

> <PUBCHEM_CACTVS_SUBSKEYS>
AAADccB7IAAEAAAAAAAAAAAAAAAAAWLAAAA8YIAAAAAAAFgB/gAAHgAQAAAADAzBngQ8wPPNkACoA7R3RACCgCQ3EiAI2SG4dNgIYPrAlbGUIYhgkADIyccYiMCOgAAAAAACAAAAAAAAAAQAAAAAAAAAAA==

> <PUBCHEM_IUPAC_TRADITIONAL_NAME>
12H-indolo[2,1-a]$b-carbolin-5-ium-13-one;chloride

> <PUBCHEM_IUPAC_INCHI>
InChI=1S/C18H10N2O.ClH/c21-18-13-6-2-4-8-15(13)20-10-9-12-11-5-1-3-7-14(11)19-16(12)17(18)20;/h1-10H;1H

> <PUBCHEM_IUPAC_INCHIKEY>
PWUOOJVYZQILBG-UHFFFAOYSA-N

> <PUBCHEM_EXACT_MASS>
306.056

> <PUBCHEM_MOLECULAR_FORMULA>
C18H11ClN2O

> <PUBCHEM_MOLECULAR_WEIGHT>
306.749

> <PUBCHEM_OPENEYE_CAN_SMILES>
C1=CC=C2C(=C1)C3=C(N2)C4=[N+](C=C3)C5=CC=CC=C5C4=O.[Cl-]

> <PUBCHEM_OPENEYE_ISO_SMILES>
C1=CC=C2C(=C1)C3=C(N2)C4=[N+](C=C3)C5=CC=CC=C5C4=O.[Cl-]

> <PUBCHEM_CACTVS_TPSA>
36.7

> <PUBCHEM_MONOISOTOPIC_WEIGHT>
306.056

> <PUBCHEM_TOTAL_CHARGE>
0

> <PUBCHEM_HEAVY_ATOM_COUNT>
22

> <PUBCHEM_ATOM_DEF_STEREO_COUNT>
0

> <PUBCHEM_ATOM_UDEF_STEREO_COUNT>
0

> <PUBCHEM_BOND_DEF_STEREO_COUNT>
0

> <PUBCHEM_BOND_UDEF_STEREO_COUNT>
0

> <PUBCHEM_ISOTOPIC_ATOM_COUNT>
0

> <PUBCHEM_COMPONENT_COUNT>
2

> <PUBCHEM_CACTVS_TAUTO_COUNT>
3

> <PUBCHEM_COORDINATE_TYPE>
1
5
255

> <PUBCHEM_BONDANNOTATIONS>
10  17  8
11  18  8
13  14  8
15  19  8
16  20  8
17  21  8
18  22  8
19  21  8
20  22  8
3  13  8
3  5  8
4  11  8
4  6  8
5  6  8
6  7  8
7  14  8
7  9  8
8  10  8
8  15  8
9  11  8
9  16  8

$$$$
72311
  -OEChem-11021605012D

 45 48  0     0  0  0  0  0  0999 V2000
    5.0655    0.0000    0.0000 Cl  0  5  0  0  0  0  0  0  0  0  0  0
    1.0688    6.3809    0.0000 O   0  0  0  0  0  0  0  0  0  0  0  0
    1.0688    8.0574    0.0000 O   0  0  0  0  0  0  0  0  0  0  0  0
    7.4360    3.6210    0.0000 O   0  0  0  0  0  0  0  0  0  0  0  0
    9.2475    4.6668    0.0000 O   0  0  0  0  0  0  0  0  0  0  0  0
    4.7044    5.1777    0.0000 N   0  3  0  0  0  0  0  0  0  0  0  0
    4.7204    6.2192    0.0000 C   0  0  0  0  0  0  0  0  0  0  0  0
    5.5864    6.7192    0.0000 C   0  0  0  0  0  0  0  0  0  0  0  0
    3.8544    6.7192    0.0000 C   0  0  0  0  0  0  0  0  0  0  0  0
    6.4964    6.2123    0.0000 C   0  0  0  0  0  0  0  0  0  0  0  0
    6.5045    5.1707    0.0000 C   0  0  0  0  0  0  0  0  0  0  0  0
    3.8544    7.7192    0.0000 C   0  0  0  0  0  0  0  0  0  0  0  0
    5.6024    4.6499    0.0000 C   0  0  0  0  0  0  0  0  0  0  0  0
    5.5864    7.7192    0.0000 C   0  0  0  0  0  0  0  0  0  0  0  0
    2.9604    6.1845    0.0000 C   0  0  0  0  0  0  0  0  0  0  0  0
    4.7204    8.2192    0.0000 C   0  0  0  0  0  0  0  0  0  0  0  0
    2.9604    8.2538    0.0000 C   0  0  0  0  0  0  0  0  0  0  0  0
    2.0544    6.6984    0.0000 C   0  0  0  0  0  0  0  0  0  0  0  0
    7.4399    4.6210    0.0000 C   0  0  0  0  0  0  0  0  0  0  0  0
    7.4233    6.7764    0.0000 C   0  0  0  0  0  0  0  0  0  0  0  0
    2.0544    7.7400    0.0000 C   0  0  0  0  0  0  0  0  0  0  0  0
    3.8326    4.6877    0.0000 C   0  0  0  0  0  0  0  0  0  0  0  0
    8.3795    5.1635    0.0000 C   0  0  0  0  0  0  0  0  0  0  0  0
    8.3712    6.2484    0.0000 C   0  0  0  0  0  0  0  0  0  0  0  0
    0.4609    7.2192    0.0000 C   0  0  0  0  0  0  0  0  0  0  0  0
    8.3001    3.1177    0.0000 C   0  0  0  0  0  0  0  0  0  0  0  0
   10.1116    5.1702    0.0000 C   0  0  0  0  0  0  0  0  0  0  0  0
    5.6000    4.0299    0.0000 H   0  0  0  0  0  0  0  0  0  0  0  0
    6.1234    8.0292    0.0000 H   0  0  0  0  0  0  0  0  0  0  0  0
    2.9676    5.5645    0.0000 H   0  0  0  0  0  0  0  0  0  0  0  0
    4.7204    8.8392    0.0000 H   0  0  0  0  0  0  0  0  0  0  0  0
    2.9676    8.8738    0.0000 H   0  0  0  0  0  0  0  0  0  0  0  0
    7.4113    7.3963    0.0000 H   0  0  0  0  0  0  0  0  0  0  0  0
    3.5288    5.2282    0.0000 H   0  0  0  0  0  0  0  0  0  0  0  0
    3.2921    4.3839    0.0000 H   0  0  0  0  0  0  0  0  0  0  0  0
    4.1364    4.1472    0.0000 H   0  0  0  0  0  0  0  0  0  0  0  0
    8.9045    6.5646    0.0000 H   0  0  0  0  0  0  0  0  0  0  0  0
    0.0000    7.6339    0.0000 H   0  0  0  0  0  0  0  0  0  0  0  0
    0.0000    6.8044    0.0000 H   0  0  0  0  0  0  0  0  0  0  0  0
    7.9881    2.5819    0.0000 H   0  0  0  0  0  0  0  0  0  0  0  0
    8.8359    2.8056    0.0000 H   0  0  0  0  0  0  0  0  0  0  0  0
    8.6122    3.6534    0.0000 H   0  0  0  0  0  0  0  0  0  0  0  0
   10.4236    4.6344    0.0000 H   0  0  0  0  0  0  0  0  0  0  0  0
   10.6473    5.4822    0.0000 H   0  0  0  0  0  0  0  0  0  0  0  0
    9.7995    5.7059    0.0000 H   0  0  0  0  0  0  0  0  0  0  0  0
  2 18  1  0  0  0  0
  2 25  1  0  0  0  0
  3 21  1  0  0  0  0
  3 25  1  0  0  0  0
  4 19  1  0  0  0  0
  4 26  1  0  0  0  0
  5 23  1  0  0  0  0
  5 27  1  0  0  0  0
  6  7  2  0  0  0  0
  6 13  1  0  0  0  0
  6 22  1  0  0  0  0
  7  8  1  0  0  0  0
  7  9  1  0  0  0  0
  8 10  2  0  0  0  0
  8 14  1  0  0  0  0
  9 12  1  0  0  0  0
  9 15  2  0  0  0  0
 10 11  1  0  0  0  0
 10 20  1  0  0  0  0
 11 13  2  0  0  0  0
 11 19  1  0  0  0  0
 12 16  1  0  0  0  0
 12 17  2  0  0  0  0
 13 28  1  0  0  0  0
 14 16  2  0  0  0  0
 14 29  1  0  0  0  0
 15 18  1  0  0  0  0
 15 30  1  0  0  0  0
 16 31  1  0  0  0  0
 17 21  1  0  0  0  0
 17 32  1  0  0  0  0
 18 21  2  0  0  0  0
 19 23  2  0  0  0  0
 20 24  2  0  0  0  0
 20 33  1  0  0  0  0
 22 34  1  0  0  0  0
 22 35  1  0  0  0  0
 22 36  1  0  0  0  0
 23 24  1  0  0  0  0
 24 37  1  0  0  0  0
 25 38  1  0  0  0  0
 25 39  1  0  0  0  0
 26 40  1  0  0  0  0
 26 41  1  0  0  0  0
 26 42  1  0  0  0  0
 27 43  1  0  0  0  0
 27 44  1  0  0  0  0
 27 45  1  0  0  0  0
M  CHG  2   1  -1   6   1
M  END
> <PUBCHEM_COMPOUND_CID>
72311

> <PUBCHEM_COMPOUND_CANONICALIZED>
1

> <PUBCHEM_CACTVS_COMPLEXITY>
516

> <PUBCHEM_CACTVS_HBOND_ACCEPTOR>
5

> <PUBCHEM_CACTVS_HBOND_DONOR>
0

> <PUBCHEM_CACTVS_ROTATABLE_BOND>
2

> <PUBCHEM_CACTVS_SUBSKEYS>
AAADceB6OAAEAAAAAAAAAAAAAAAAASAAAAA8YMEAAAAAAEjx/AAAHgAAAAAADAzBngc+zvMMFACgAzRnRACCiCAxICAI2CAuzJgdJuLEsZukMCpmwBnO6Aew0PMO4AADQAAaQADAAAaAADSAAAAAAAAAAA==

> <PUBCHEM_IUPAC_OPENEYE_NAME>
1,2-dimethoxy-12-methyl-[1,3]benzodioxolo[5,6-c]phenanthridin-12-ium;chloride

> <PUBCHEM_IUPAC_CAS_NAME>
1,2-dimethoxy-12-methyl-[1,3]benzodioxolo[5,6-c]phenanthridin-12-ium;chloride

> <PUBCHEM_IUPAC_NAME>
1,2-dimethoxy-12-methyl-[1,3]benzodioxolo[5,6-c]phenanthridin-12-ium;chloride

> <PUBCHEM_IUPAC_SYSTEMATIC_NAME>
1,2-dimethoxy-12-methyl-[1,3]benzodioxolo[5,6-c]phenanthridin-12-ium;chloride

> <PUBCHEM_IUPAC_TRADITIONAL_NAME>
1,2-dimethoxy-12-methyl-[1,3]benzodioxolo[5,6-c]phenanthridin-12-ium;chloride

> <PUBCHEM_IUPAC_INCHI>
InChI=1S/C21H18NO4.ClH/c1-22-10-16-13(6-7-17(23-2)21(16)24-3)14-5-4-12-8-18-19(26-11-25-18)9-15(12)20(14)22;/h4-10H,11H2,1-3H3;1H/q+1;/p-1

> <PUBCHEM_IUPAC_INCHIKEY>
WEEFNMFMNMASJY-UHFFFAOYSA-M

> <PUBCHEM_EXACT_MASS>
383.092

> <PUBCHEM_MOLECULAR_FORMULA>
C21H18ClNO4

> <PUBCHEM_MOLECULAR_WEIGHT>
383.828

> <PUBCHEM_OPENEYE_CAN_SMILES>
C[N+]1=C2C(=C3C=CC(=C(C3=C1)OC)OC)C=CC4=CC5=C(C=C42)OCO5.[Cl-]

> <PUBCHEM_OPENEYE_ISO_SMILES>
C[N+]1=C2C(=C3C=CC(=C(C3=C1)OC)OC)C=CC4=CC5=C(C=C42)OCO5.[Cl-]

> <PUBCHEM_CACTVS_TPSA>
40.8

> <PUBCHEM_MONOISOTOPIC_WEIGHT>
383.092

> <PUBCHEM_TOTAL_CHARGE>
0

> <PUBCHEM_HEAVY_ATOM_COUNT>
27

> <PUBCHEM_ATOM_DEF_STEREO_COUNT>
0

> <PUBCHEM_ATOM_UDEF_STEREO_COUNT>
0

> <PUBCHEM_BOND_DEF_STEREO_COUNT>
0

> <PUBCHEM_BOND_UDEF_STEREO_COUNT>
0

> <PUBCHEM_ISOTOPIC_ATOM_COUNT>
0

> <PUBCHEM_COMPONENT_COUNT>
2

> <PUBCHEM_CACTVS_TAUTO_COUNT>
1

> <PUBCHEM_COORDINATE_TYPE>
1
5
255

> <PUBCHEM_BONDANNOTATIONS>
10  11  8
10  20  8
11  13  8
11  19  8
12  16  8
12  17  8
14  16  8
15  18  8
17  21  8
18  21  8
19  23  8
20  24  8
23  24  8
6  13  8
6  7  8
7  8  8
7  9  8
8  10  8
8  14  8
9  12  8
9  15  8

$$$$
5353854
  -OEChem-11021605012D

 26 28  0     0  0  0  0  0  0999 V2000
    6.2619   -1.2924    0.0000 O   0  0  0  0  0  0  0  0  0  0  0  0
    4.6783   -2.0971    0.0000 N   0  0  0  0  0  0  0  0  0  0  0  0
    4.5307    2.1850    0.0000 N   0  0  0  0  0  0  0  0  0  0  0  0
    3.7320   -0.7924    0.0000 C   0  0  0  0  0  0  0  0  0  0  0  0
    4.6783   -0.4877    0.0000 C   0  0  0  0  0  0  0  0  0  0  0  0
    3.7320   -1.7924    0.0000 C   0  0  0  0  0  0  0  0  0  0  0  0
    5.2619   -1.2924    0.0000 C   0  0  0  0  0  0  0  0  0  0  0  0
    4.9889    0.4629    0.0000 C   0  0  0  0  0  0  0  0  0  0  0  0
    2.8660   -0.2924    0.0000 C   0  0  0  0  0  0  0  0  0  0  0  0
    4.3211    1.2072    0.0000 C   0  0  0  0  0  0  0  0  0  0  0  0
    2.8660   -2.2924    0.0000 C   0  0  0  0  0  0  0  0  0  0  0  0
    2.0000   -0.7924    0.0000 C   0  0  0  0  0  0  0  0  0  0  0  0
    2.0000   -1.7924    0.0000 C   0  0  0  0  0  0  0  0  0  0  0  0
    3.3264    1.1044    0.0000 C   0  0  0  0  0  0  0  0  0  0  0  0
    3.6655    2.6864    0.0000 C   0  0  0  0  0  0  0  0  0  0  0  0
    2.9212    2.0186    0.0000 C   0  0  0  0  0  0  0  0  0  0  0  0
    4.8709   -2.6864    0.0000 H   0  0  0  0  0  0  0  0  0  0  0  0
    5.5956    0.5907    0.0000 H   0  0  0  0  0  0  0  0  0  0  0  0
    2.8660    0.3276    0.0000 H   0  0  0  0  0  0  0  0  0  0  0  0
    2.8660   -2.9124    0.0000 H   0  0  0  0  0  0  0  0  0  0  0  0
    1.4631   -0.4824    0.0000 H   0  0  0  0  0  0  0  0  0  0  0  0
    1.4631   -2.1024    0.0000 H   0  0  0  0  0  0  0  0  0  0  0  0
    5.0975    2.4362    0.0000 H   0  0  0  0  0  0  0  0  0  0  0  0
    3.0155    0.5680    0.0000 H   0  0  0  0  0  0  0  0  0  0  0  0
    3.6018    3.3032    0.0000 H   0  0  0  0  0  0  0  0  0  0  0  0
    2.3150    2.1486    0.0000 H   0  0  0  0  0  0  0  0  0  0  0  0
  1  7  2  0  0  0  0
  2  6  1  0  0  0  0
  2  7  1  0  0  0  0
  2 17  1  0  0  0  0
  3 10  1  0  0  0  0
  3 15  1  0  0  0  0
  3 23  1  0  0  0  0
  4  5  1  0  0  0  0
  4  6  1  0  0  0  0
  4  9  2  0  0  0  0
  5  7  1  0  0  0  0
  5  8  2  0  0  0  0
  6 11  2  0  0  0  0
  8 10  1  0  0  0  0
  8 18  1  0  0  0  0
  9 12  1  0  0  0  0
  9 19  1  0  0  0  0
 10 14  2  0  0  0  0
 11 13  1  0  0  0  0
 11 20  1  0  0  0  0
 12 13  2  0  0  0  0
 12 21  1  0  0  0  0
 13 22  1  0  0  0  0
 14 16  1  0  0  0  0
 14 24  1  0  0  0  0
 15 16  2  0  0  0  0
 15 25  1  0  0  0  0
 16 26  1  0  0  0  0
M  END
> <PUBCHEM_COMPOUND_CID>
5353854

> <PUBCHEM_COMPOUND_CANONICALIZED>
1

> <PUBCHEM_CACTVS_COMPLEXITY>
324

> <PUBCHEM_CACTVS_HBOND_ACCEPTOR>
1

> <PUBCHEM_CACTVS_HBOND_DONOR>
2

> <PUBCHEM_CACTVS_ROTATABLE_BOND>
1

> <PUBCHEM_CACTVS_SUBSKEYS>
AAADccBzIAAAAAAAAAAAAAAAAAAAAWLAAAAwAAAAAAAAAFgBwAAAHgAQAAAADAjBngQ8wJLJkACoAzV3VACCgCAxAiAI2aE4ZNgIIPLAlZGEIAhglADIyYcciICOAAAAAAACAAAAAAAAAAQAAAAAAAAAAA==

> <PUBCHEM_IUPAC_OPENEYE_NAME>
(3E)-3-(1H-pyrrol-2-ylmethylene)indolin-2-one

> <PUBCHEM_IUPAC_CAS_NAME>
(3E)-3-(1H-pyrrol-2-ylmethylidene)-1H-indol-2-one

> <PUBCHEM_IUPAC_NAME>
(3E)-3-(1H-pyrrol-2-ylmethylidene)-1H-indol-2-one

> <PUBCHEM_IUPAC_SYSTEMATIC_NAME>
(3E)-3-(1H-pyrrol-2-ylmethylidene)-1H-indol-2-one

> <PUBCHEM_IUPAC_TRADITIONAL_NAME>
(3E)-3-(1H-pyrrol-2-ylmethylene)oxindole

> <PUBCHEM_IUPAC_INCHI>
InChI=1S/C13H10N2O/c16-13-11(8-9-4-3-7-14-9)10-5-1-2-6-12(10)15-13/h1-8,14H,(H,15,16)/b11-8+

> <PUBCHEM_IUPAC_INCHIKEY>
SEZFNTZQMWJIAI-DHZHZOJOSA-N

> <PUBCHEM_XLOGP3_AA>
1.7

> <PUBCHEM_EXACT_MASS>
210.079

> <PUBCHEM_MOLECULAR_FORMULA>
C13H10N2O

> <PUBCHEM_MOLECULAR_WEIGHT>
210.236

> <PUBCHEM_OPENEYE_CAN_SMILES>
C1=CC=C2C(=C1)C(=CC3=CC=CN3)C(=O)N2

> <PUBCHEM_OPENEYE_ISO_SMILES>
C1=CC=C2C(=C1)/C(=C\C3=CC=CN3)/C(=O)N2

> <PUBCHEM_CACTVS_TPSA>
44.9

> <PUBCHEM_MONOISOTOPIC_WEIGHT>
210.079

> <PUBCHEM_TOTAL_CHARGE>
0

> <PUBCHEM_HEAVY_ATOM_COUNT>
16

> <PUBCHEM_ATOM_DEF_STEREO_COUNT>
0

> <PUBCHEM_ATOM_UDEF_STEREO_COUNT>
0

> <PUBCHEM_BOND_DEF_STEREO_COUNT>
1

> <PUBCHEM_BOND_UDEF_STEREO_COUNT>
0

> <PUBCHEM_ISOTOPIC_ATOM_COUNT>
0

> <PUBCHEM_COMPONENT_COUNT>
1

> <PUBCHEM_CACTVS_TAUTO_COUNT>
7

> <PUBCHEM_COORDINATE_TYPE>
1
5
255

> <PUBCHEM_BONDANNOTATIONS>
10  14  8
11  13  8
12  13  8
14  16  8
15  16  8
3  10  8
3  15  8
4  6  8
4  9  8
6  11  8
9  12  8

$$$$
3213
  -OEChem-11021605012D

 33 36  0     0  0  0  0  0  0999 V2000
    4.5124    1.3037    0.0000 N   0  0  0  0  0  0  0  0  0  0  0  0
    8.3618   -1.3408    0.0000 N   0  0  0  0  0  0  0  0  0  0  0  0
    5.0091   -0.2295    0.0000 C   0  0  0  0  0  0  0  0  0  0  0  0
    5.3181    0.7215    0.0000 C   0  0  0  0  0  0  0  0  0  0  0  0
    5.6782   -0.9727    0.0000 C   0  0  0  0  0  0  0  0  0  0  0  0
    4.0150   -0.2270    0.0000 C   0  0  0  0  0  0  0  0  0  0  0  0
    6.2962    0.9294    0.0000 C   0  0  0  0  0  0  0  0  0  0  0  0
    6.9654    0.1863    0.0000 C   0  0  0  0  0  0  0  0  0  0  0  0
    6.6564   -0.7648    0.0000 C   0  0  0  0  0  0  0  0  0  0  0  0
    3.7086    0.7187    0.0000 C   0  0  0  0  0  0  0  0  0  0  0  0
    5.3692   -1.9237    0.0000 C   0  0  0  0  0  0  0  0  0  0  0  0
    3.3334   -1.0065    0.0000 C   0  0  0  0  0  0  0  0  0  0  0  0
    6.6053    1.8805    0.0000 C   0  0  0  0  0  0  0  0  0  0  0  0
    2.6994    0.9505    0.0000 C   0  0  0  0  0  0  0  0  0  0  0  0
    7.9808    0.4185    0.0000 C   0  0  0  0  0  0  0  0  0  0  0  0
    7.3413   -1.5495    0.0000 C   0  0  0  0  0  0  0  0  0  0  0  0
    2.3191   -0.7981    0.0000 C   0  0  0  0  0  0  0  0  0  0  0  0
    2.0000    0.1870    0.0000 C   0  0  0  0  0  0  0  0  0  0  0  0
    8.6837   -0.3501    0.0000 C   0  0  0  0  0  0  0  0  0  0  0  0
    4.5113    1.9237    0.0000 H   0  0  0  0  0  0  0  0  0  0  0  0
    4.7795   -1.7322    0.0000 H   0  0  0  0  0  0  0  0  0  0  0  0
    5.1776   -2.5134    0.0000 H   0  0  0  0  0  0  0  0  0  0  0  0
    5.9588   -2.1153    0.0000 H   0  0  0  0  0  0  0  0  0  0  0  0
    3.5313   -1.5940    0.0000 H   0  0  0  0  0  0  0  0  0  0  0  0
    7.1949    1.6889    0.0000 H   0  0  0  0  0  0  0  0  0  0  0  0
    6.7968    2.4701    0.0000 H   0  0  0  0  0  0  0  0  0  0  0  0
    6.0156    2.0721    0.0000 H   0  0  0  0  0  0  0  0  0  0  0  0
    2.5152    1.5425    0.0000 H   0  0  0  0  0  0  0  0  0  0  0  0
    8.1655    1.0104    0.0000 H   0  0  0  0  0  0  0  0  0  0  0  0
    7.1429   -2.1369    0.0000 H   0  0  0  0  0  0  0  0  0  0  0  0
    1.9056   -1.2601    0.0000 H   0  0  0  0  0  0  0  0  0  0  0  0
    1.3942    0.3187    0.0000 H   0  0  0  0  0  0  0  0  0  0  0  0
    9.2897   -0.2189    0.0000 H   0  0  0  0  0  0  0  0  0  0  0  0
  1  4  1  0  0  0  0
  1 10  1  0  0  0  0
  1 20  1  0  0  0  0
  2 16  2  0  0  0  0
  2 19  1  0  0  0  0
  3  4  2  0  0  0  0
  3  5  1  0  0  0  0
  3  6  1  0  0  0  0
  4  7  1  0  0  0  0
  5  9  2  0  0  0  0
  5 11  1  0  0  0  0
  6 10  1  0  0  0  0
  6 12  2  0  0  0  0
  7  8  2  0  0  0  0
  7 13  1  0  0  0  0
  8  9  1  0  0  0  0
  8 15  1  0  0  0  0
  9 16  1  0  0  0  0
 10 14  2  0  0  0  0
 11 21  1  0  0  0  0
 11 22  1  0  0  0  0
 11 23  1  0  0  0  0
 12 17  1  0  0  0  0
 12 24  1  0  0  0  0
 13 25  1  0  0  0  0
 13 26  1  0  0  0  0
 13 27  1  0  0  0  0
 14 18  1  0  0  0  0
 14 28  1  0  0  0  0
 15 19  2  0  0  0  0
 15 29  1  0  0  0  0
 16 30  1  0  0  0  0
 17 18  2  0  0  0  0
 17 31  1  0  0  0  0
 18 32  1  0  0  0  0
 19 33  1  0  0  0  0
M  END
> <PUBCHEM_COMPOUND_CID>
3213

> <PUBCHEM_COMPOUND_CANONICALIZED>
1

> <PUBCHEM_CACTVS_COMPLEXITY>
342

> <PUBCHEM_CACTVS_HBOND_ACCEPTOR>
1

> <PUBCHEM_CACTVS_HBOND_DONOR>
1

> <PUBCHEM_CACTVS_ROTATABLE_BOND>
0

> <PUBCHEM_CACTVS_SUBSKEYS>
AAADccB7AAAAAAAAAAAAAAAAAAAAAWAAAAA8YIAAAAAAAFix/gAAHAAQAAAADAjBHgQ+wPLJkACgAzRnRACCgCAxAiAI2SA4ZJgIIOLAkZGEIAhgkADIyAcQgMAOyAACQAASAACQAASAACQAAAAAAAAAAA==

> <PUBCHEM_IUPAC_OPENEYE_NAME>
5,11-dimethyl-6H-pyrido[4,3-b]carbazole

> <PUBCHEM_IUPAC_CAS_NAME>
5,11-dimethyl-6H-pyrido[4,3-b]carbazole

> <PUBCHEM_IUPAC_NAME>
5,11-dimethyl-6H-pyrido[4,3-b]carbazole

> <PUBCHEM_IUPAC_SYSTEMATIC_NAME>
5,11-dimethyl-6H-pyrido[4,3-b]carbazole

> <PUBCHEM_IUPAC_TRADITIONAL_NAME>
5,11-dimethyl-6H-pyrido[4,3-b]carbazole

> <PUBCHEM_IUPAC_INCHI>
InChI=1S/C17H14N2/c1-10-14-9-18-8-7-12(14)11(2)17-16(10)13-5-3-4-6-15(13)19-17/h3-9,19H,1-2H3

> <PUBCHEM_IUPAC_INCHIKEY>
CTSPAMFJBXKSOY-UHFFFAOYSA-N

> <PUBCHEM_XLOGP3>
4.8

> <PUBCHEM_EXACT_MASS>
246.116

> <PUBCHEM_MOLECULAR_FORMULA>
C17H14N2

> <PUBCHEM_MOLECULAR_WEIGHT>
246.313

> <PUBCHEM_OPENEYE_CAN_SMILES>
CC1=C2C(=C(C3=C1C=CN=C3)C)C4=CC=CC=C4N2

> <PUBCHEM_OPENEYE_ISO_SMILES>
CC1=C2C(=C(C3=C1C=CN=C3)C)C4=CC=CC=C4N2

> <PUBCHEM_CACTVS_TPSA>
28.7

> <PUBCHEM_MONOISOTOPIC_WEIGHT>
246.116

> <PUBCHEM_TOTAL_CHARGE>
0

> <PUBCHEM_HEAVY_ATOM_COUNT>
19

> <PUBCHEM_ATOM_DEF_STEREO_COUNT>
0

> <PUBCHEM_ATOM_UDEF_STEREO_COUNT>
0

> <PUBCHEM_BOND_DEF_STEREO_COUNT>
0

> <PUBCHEM_BOND_UDEF_STEREO_COUNT>
0

> <PUBCHEM_ISOTOPIC_ATOM_COUNT>
0

> <PUBCHEM_COMPONENT_COUNT>
1

> <PUBCHEM_CACTVS_TAUTO_COUNT>
2

> <PUBCHEM_COORDINATE_TYPE>
1
3

> <PUBCHEM_BONDANNOTATIONS>
1  10  8
1  4  8
10  14  8
12  17  8
14  18  8
15  19  8
17  18  8
2  16  8
2  19  8
3  4  8
3  5  8
3  6  8
4  7  8
5  9  8
6  10  8
6  12  8
7  8  8
8  15  8
8  9  8
9  16  8

$$$$
683649
  -OEChem-11021605012D

 32 34  0     1  0  0  0  0  0999 V2000
    5.4071   -1.6284    0.0000 S   0  0  0  0  0  0  0  0  0  0  0  0
    2.8660    1.9594    0.0000 S   0  0  0  0  0  0  0  0  0  0  0  0
    7.2641    0.4386    0.0000 N   0  0  3  0  0  0  0  0  0  0  0  0
    4.5981    1.9594    0.0000 N   0  0  0  0  0  0  0  0  0  0  0  0
    2.0000   -0.5406    0.0000 N   0  0  0  0  0  0  0  0  0  0  0  0
    5.4641    0.4594    0.0000 C   0  0  0  0  0  0  0  0  0  0  0  0
    6.3580   -0.0752    0.0000 C   0  0  0  0  0  0  0  0  0  0  0  0
    6.3580    1.9941    0.0000 C   0  0  0  0  0  0  0  0  0  0  0  0
    7.2641    1.4802    0.0000 C   0  0  0  0  0  0  0  0  0  0  0  0
    5.4641    1.4594    0.0000 C   0  0  0  0  0  0  0  0  0  0  0  0
    4.5981   -0.0406    0.0000 C   0  0  0  0  0  0  0  0  0  0  0  0
    8.1282   -0.0647    0.0000 C   0  0  0  0  0  0  0  0  0  0  0  0
    3.7320    0.4594    0.0000 C   0  0  0  0  0  0  0  0  0  0  0  0
    3.7320    1.4594    0.0000 C   0  0  0  0  0  0  0  0  0  0  0  0
    4.5981   -1.0406    0.0000 C   0  0  0  0  0  0  0  0  0  0  0  0
    3.7891   -1.6284    0.0000 C   0  0  0  0  0  0  0  0  0  0  0  0
    2.8660   -0.0406    0.0000 C   0  0  0  0  0  0  0  0  0  0  0  0
    4.0981   -2.5794    0.0000 C   0  0  0  0  0  0  0  0  0  0  0  0
    5.0981   -2.5794    0.0000 C   0  0  0  0  0  0  0  0  0  0  0  0
    5.9534   -0.5450    0.0000 H   0  0  0  0  0  0  0  0  0  0  0  0
    6.7517   -0.5543    0.0000 H   0  0  0  0  0  0  0  0  0  0  0  0
    6.7517    2.4731    0.0000 H   0  0  0  0  0  0  0  0  0  0  0  0
    5.9534    2.4639    0.0000 H   0  0  0  0  0  0  0  0  0  0  0  0
    7.8750    1.3741    0.0000 H   0  0  0  0  0  0  0  0  0  0  0  0
    7.4732    2.0639    0.0000 H   0  0  0  0  0  0  0  0  0  0  0  0
    4.5981    2.5794    0.0000 H   0  0  0  0  0  0  0  0  0  0  0  0
    7.8161   -0.6005    0.0000 H   0  0  0  0  0  0  0  0  0  0  0  0
    8.6639   -0.3768    0.0000 H   0  0  0  0  0  0  0  0  0  0  0  0
    8.4403    0.4710    0.0000 H   0  0  0  0  0  0  0  0  0  0  0  0
    3.1994   -1.4368    0.0000 H   0  0  0  0  0  0  0  0  0  0  0  0
    3.7336   -3.0810    0.0000 H   0  0  0  0  0  0  0  0  0  0  0  0
    5.4625   -3.0810    0.0000 H   0  0  0  0  0  0  0  0  0  0  0  0
  1 15  1  0  0  0  0
  1 19  1  0  0  0  0
  2 14  2  0  0  0  0
  3  7  1  0  0  0  0
  3  9  1  0  0  0  0
  3 12  1  0  0  0  0
  4 10  1  0  0  0  0
  4 14  1  0  0  0  0
  4 26  1  0  0  0  0
  5 17  3  0  0  0  0
  6  7  1  0  0  0  0
  6 10  2  0  0  0  0
  6 11  1  0  0  0  0
  7 20  1  0  0  0  0
  7 21  1  0  0  0  0
  8  9  1  0  0  0  0
  8 10  1  0  0  0  0
  8 22  1  0  0  0  0
  8 23  1  0  0  0  0
  9 24  1  0  0  0  0
  9 25  1  0  0  0  0
 11 13  2  0  0  0  0
 11 15  1  0  0  0  0
 12 27  1  0  0  0  0
 12 28  1  0  0  0  0
 12 29  1  0  0  0  0
 13 14  1  0  0  0  0
 13 17  1  0  0  0  0
 15 16  2  0  0  0  0
 16 18  1  0  0  0  0
 16 30  1  0  0  0  0
 18 19  2  0  0  0  0
 18 31  1  0  0  0  0
 19 32  1  0  0  0  0
M  END
> <PUBCHEM_COMPOUND_CID>
683649

> <PUBCHEM_COMPOUND_CANONICALIZED>
1

> <PUBCHEM_CACTVS_COMPLEXITY>
538

> <PUBCHEM_CACTVS_HBOND_ACCEPTOR>
4

> <PUBCHEM_CACTVS_HBOND_DONOR>
1

> <PUBCHEM_CACTVS_ROTATABLE_BOND>
1

> <PUBCHEM_CACTVS_SUBSKEYS>
AAADccBzAABgAAAAAAAAAAAAAAAAASAAAAAgQAAAAAAAAACBgAAAHAQQAAAADAjFUASyAYPAAAiUBiRCQACjAIAgCBlIiBgIAIgIoCKg0RCEAAAgkACoiAcQgAAAAAAAAAAAAAAAAAAAAAAAAAAAAAAAAA==

> <PUBCHEM_IUPAC_OPENEYE_NAME>
6-methyl-4-(2-thienyl)-2-thioxo-1,5,7,8-tetrahydro-1,6-naphthyridine-3-carbonitrile

> <PUBCHEM_IUPAC_CAS_NAME>
6-methyl-2-sulfanylidene-4-thiophen-2-yl-1,5,7,8-tetrahydro-1,6-naphthyridine-3-carbonitrile

> <PUBCHEM_IUPAC_NAME>
6-methyl-2-sulfanylidene-4-thiophen-2-yl-1,5,7,8-tetrahydro-1,6-naphthyridine-3-carbonitrile

> <PUBCHEM_IUPAC_SYSTEMATIC_NAME>
6-methyl-2-sulfanylidene-4-thiophen-2-yl-1,5,7,8-tetrahydro-1,6-naphthyridine-3-carbonitrile

> <PUBCHEM_IUPAC_TRADITIONAL_NAME>
6-methyl-4-(2-thienyl)-2-thioxo-1,5,7,8-tetrahydro-1,6-naphthyridine-3-carbonitrile

> <PUBCHEM_IUPAC_INCHI>
InChI=1S/C14H13N3S2/c1-17-5-4-11-10(8-17)13(12-3-2-6-19-12)9(7-15)14(18)16-11/h2-3,6H,4-5,8H2,1H3,(H,16,18)

> <PUBCHEM_IUPAC_INCHIKEY>
CMRUGDIVOLSBBJ-UHFFFAOYSA-N

> <PUBCHEM_XLOGP3_AA>
1.1

> <PUBCHEM_EXACT_MASS>
287.055

> <PUBCHEM_MOLECULAR_FORMULA>
C14H13N3S2

> <PUBCHEM_MOLECULAR_WEIGHT>
287.399

> <PUBCHEM_OPENEYE_CAN_SMILES>
CN1CCC2=C(C1)C(=C(C(=S)N2)C#N)C3=CC=CS3

> <PUBCHEM_OPENEYE_ISO_SMILES>
CN1CCC2=C(C1)C(=C(C(=S)N2)C#N)C3=CC=CS3

> <PUBCHEM_CACTVS_TPSA>
99.4

> <PUBCHEM_MONOISOTOPIC_WEIGHT>
287.055

> <PUBCHEM_TOTAL_CHARGE>
0

> <PUBCHEM_HEAVY_ATOM_COUNT>
19

> <PUBCHEM_ATOM_DEF_STEREO_COUNT>
0

> <PUBCHEM_ATOM_UDEF_STEREO_COUNT>
0

> <PUBCHEM_BOND_DEF_STEREO_COUNT>
0

> <PUBCHEM_BOND_UDEF_STEREO_COUNT>
0

> <PUBCHEM_ISOTOPIC_ATOM_COUNT>
0

> <PUBCHEM_COMPONENT_COUNT>
1

> <PUBCHEM_CACTVS_TAUTO_COUNT>
5

> <PUBCHEM_COORDINATE_TYPE>
1
5
255

> <PUBCHEM_BONDANNOTATIONS>
1  15  8
1  19  8
11  13  8
13  14  8
15  16  8
16  18  8
18  19  8
4  10  8
4  14  8
6  10  8
6  11  8

$$$$
1249835
  -OEChem-11021605012D

 36 37  0     0  0  0  0  0  0999 V2000
    3.8366    2.9365    0.0000 S   0  0  0  0  0  0  0  0  0  0  0  0
    2.8660   -2.5580    0.0000 O   0  0  0  0  0  0  0  0  0  0  0  0
    4.8535    0.5571    0.0000 O   0  0  0  0  0  0  0  0  0  0  0  0
    5.2215    4.0580    0.0000 O   0  0  0  0  0  0  0  0  0  0  0  0
    5.3147    2.2784    0.0000 N   0  0  0  0  0  0  0  0  0  0  0  0
    7.8916    2.8784    0.0000 N   0  0  0  0  0  0  0  0  0  0  0  0
    6.3092    2.1739    0.0000 C   0  0  0  0  0  0  0  0  0  0  0  0
    4.6456    1.5353    0.0000 C   0  0  0  0  0  0  0  0  0  0  0  0
    3.7320    1.9420    0.0000 C   0  0  0  0  0  0  0  0  0  0  0  0
    6.8970    2.9829    0.0000 C   0  0  0  0  0  0  0  0  0  0  0  0
    4.8147    3.1444    0.0000 C   0  0  0  0  0  0  0  0  0  0  0  0
    2.8660    1.4420    0.0000 C   0  0  0  0  0  0  0  0  0  0  0  0
    2.8660    0.4420    0.0000 C   0  0  0  0  0  0  0  0  0  0  0  0
    2.0000   -0.0580    0.0000 C   0  0  0  0  0  0  0  0  0  0  0  0
    3.7320   -0.0580    0.0000 C   0  0  0  0  0  0  0  0  0  0  0  0
    2.8660   -1.5580    0.0000 C   0  0  0  0  0  0  0  0  0  0  0  0
    2.0000   -1.0580    0.0000 C   0  0  0  0  0  0  0  0  0  0  0  0
    3.7320   -1.0580    0.0000 C   0  0  0  0  0  0  0  0  0  0  0  0
    2.0000   -3.0580    0.0000 C   0  0  0  0  0  0  0  0  0  0  0  0
    2.0000   -4.0580    0.0000 C   0  0  0  0  0  0  0  0  0  0  0  0
    6.1384    1.5779    0.0000 H   0  0  0  0  0  0  0  0  0  0  0  0
    6.8665    1.9021    0.0000 H   0  0  0  0  0  0  0  0  0  0  0  0
    7.0679    3.5789    0.0000 H   0  0  0  0  0  0  0  0  0  0  0  0
    6.3398    3.2547    0.0000 H   0  0  0  0  0  0  0  0  0  0  0  0
    2.3291    1.7520    0.0000 H   0  0  0  0  0  0  0  0  0  0  0  0
    1.4631    0.2520    0.0000 H   0  0  0  0  0  0  0  0  0  0  0  0
    4.2690    0.2520    0.0000 H   0  0  0  0  0  0  0  0  0  0  0  0
    1.4631   -1.3680    0.0000 H   0  0  0  0  0  0  0  0  0  0  0  0
    4.2690   -1.3680    0.0000 H   0  0  0  0  0  0  0  0  0  0  0  0
    8.2560    3.3800    0.0000 H   0  0  0  0  0  0  0  0  0  0  0  0
    8.1437    2.3120    0.0000 H   0  0  0  0  0  0  0  0  0  0  0  0
    1.7880   -2.4754    0.0000 H   0  0  0  0  0  0  0  0  0  0  0  0
    1.3894   -3.1656    0.0000 H   0  0  0  0  0  0  0  0  0  0  0  0
    1.3800   -4.0580    0.0000 H   0  0  0  0  0  0  0  0  0  0  0  0
    2.0000   -4.6780    0.0000 H   0  0  0  0  0  0  0  0  0  0  0  0
    2.6200   -4.0580    0.0000 H   0  0  0  0  0  0  0  0  0  0  0  0
  1  9  1  0  0  0  0
  1 11  1  0  0  0  0
  2 16  1  0  0  0  0
  2 19  1  0  0  0  0
  3  8  2  0  0  0  0
  4 11  2  0  0  0  0
  5  7  1  0  0  0  0
  5  8  1  0  0  0  0
  5 11  1  0  0  0  0
  6 10  1  0  0  0  0
  6 30  1  0  0  0  0
  6 31  1  0  0  0  0
  7 10  1  0  0  0  0
  7 21  1  0  0  0  0
  7 22  1  0  0  0  0
  8  9  1  0  0  0  0
  9 12  2  0  0  0  0
 10 23  1  0  0  0  0
 10 24  1  0  0  0  0
 12 13  1  0  0  0  0
 12 25  1  0  0  0  0
 13 14  2  0  0  0  0
 13 15  1  0  0  0  0
 14 17  1  0  0  0  0
 14 26  1  0  0  0  0
 15 18  2  0  0  0  0
 15 27  1  0  0  0  0
 16 17  2  0  0  0  0
 16 18  1  0  0  0  0
 17 28  1  0  0  0  0
 18 29  1  0  0  0  0
 19 20  1  0  0  0  0
 19 32  1  0  0  0  0
 19 33  1  0  0  0  0
 20 34  1  0  0  0  0
 20 35  1  0  0  0  0
 20 36  1  0  0  0  0
M  END
> <PUBCHEM_COMPOUND_CID>
1249835

> <PUBCHEM_COMPOUND_CANONICALIZED>
1

> <PUBCHEM_CACTVS_COMPLEXITY>
403

> <PUBCHEM_CACTVS_HBOND_ACCEPTOR>
5

> <PUBCHEM_CACTVS_HBOND_DONOR>
1

> <PUBCHEM_CACTVS_ROTATABLE_BOND>
5

> <PUBCHEM_CACTVS_SUBSKEYS>
AAADceBzMABAAAAAAAAAAAAAAAAAAWAAAAAwAAAAAAAAAAABAAAAHgQQAAAADATh2AYyBoNABAiIAiFSEACCCABgIBAIiIAOCMgMZiKEMRqSOCCk1jGIqYeAwAAOIAAAAAAAAABAAAAAAAAAAAAAAAAAAA==

> <PUBCHEM_IUPAC_OPENEYE_NAME>
(5E)-3-(2-aminoethyl)-5-[(4-ethoxyphenyl)methylene]thiazolidine-2,4-dione

> <PUBCHEM_IUPAC_CAS_NAME>
(5E)-3-(2-aminoethyl)-5-[(4-ethoxyphenyl)methylidene]thiazolidine-2,4-dione

> <PUBCHEM_IUPAC_NAME>
(5E)-3-(2-aminoethyl)-5-[(4-ethoxyphenyl)methylidene]-1,3-thiazolidine-2,4-dione

> <PUBCHEM_IUPAC_SYSTEMATIC_NAME>
(5E)-3-(2-azanylethyl)-5-[(4-ethoxyphenyl)methylidene]-1,3-thiazolidine-2,4-dione

> <PUBCHEM_IUPAC_TRADITIONAL_NAME>
(5E)-3-(2-aminoethyl)-5-(4-ethoxybenzylidene)thiazolidine-2,4-quinone

> <PUBCHEM_IUPAC_INCHI>
InChI=1S/C14H16N2O3S/c1-2-19-11-5-3-10(4-6-11)9-12-13(17)16(8-7-15)14(18)20-12/h3-6,9H,2,7-8,15H2,1H3/b12-9+

> <PUBCHEM_IUPAC_INCHIKEY>
NBJOUCGADPALIB-FMIVXFBMSA-N

> <PUBCHEM_XLOGP3_AA>
1.8

> <PUBCHEM_EXACT_MASS>
292.088

> <PUBCHEM_MOLECULAR_FORMULA>
C14H16N2O3S

> <PUBCHEM_MOLECULAR_WEIGHT>
292.353

> <PUBCHEM_OPENEYE_CAN_SMILES>
CCOC1=CC=C(C=C1)C=C2C(=O)N(C(=O)S2)CCN

> <PUBCHEM_OPENEYE_ISO_SMILES>
CCOC1=CC=C(C=C1)/C=C/2\C(=O)N(C(=O)S2)CCN

> <PUBCHEM_CACTVS_TPSA>
97.9

> <PUBCHEM_MONOISOTOPIC_WEIGHT>
292.088

> <PUBCHEM_TOTAL_CHARGE>
0

> <PUBCHEM_HEAVY_ATOM_COUNT>
20

> <PUBCHEM_ATOM_DEF_STEREO_COUNT>
0

> <PUBCHEM_ATOM_UDEF_STEREO_COUNT>
0

> <PUBCHEM_BOND_DEF_STEREO_COUNT>
1

> <PUBCHEM_BOND_UDEF_STEREO_COUNT>
0

> <PUBCHEM_ISOTOPIC_ATOM_COUNT>
0

> <PUBCHEM_COMPONENT_COUNT>
1

> <PUBCHEM_CACTVS_TAUTO_COUNT>
1

> <PUBCHEM_COORDINATE_TYPE>
1
5
255

> <PUBCHEM_BONDANNOTATIONS>
13  14  8
13  15  8
14  17  8
15  18  8
16  17  8
16  18  8

$$$$
5281767
  -OEChem-11021605012D

 47 48  0     0  0  0  0  0  0999 V2000
    2.8660   -4.8450    0.0000 O   0  0  0  0  0  0  0  0  0  0  0  0
    8.9282    5.6550    0.0000 O   0  0  0  0  0  0  0  0  0  0  0  0
    4.5981   -5.8450    0.0000 O   0  0  0  0  0  0  0  0  0  0  0  0
   10.6603    4.6550    0.0000 O   0  0  0  0  0  0  0  0  0  0  0  0
    4.5981    0.1550    0.0000 O   0  0  0  0  0  0  0  0  0  0  0  0
    5.4641    1.6550    0.0000 O   0  0  0  0  0  0  0  0  0  0  0  0
    4.5981   -2.8450    0.0000 C   0  0  0  0  0  0  0  0  0  0  0  0
    8.0622    3.1550    0.0000 C   0  0  0  0  0  0  0  0  0  0  0  0
    3.7320   -3.3450    0.0000 C   0  0  0  0  0  0  0  0  0  0  0  0
    3.7320   -4.3450    0.0000 C   0  0  0  0  0  0  0  0  0  0  0  0
    8.0622    4.1550    0.0000 C   0  0  0  0  0  0  0  0  0  0  0  0
    8.9282    4.6550    0.0000 C   0  0  0  0  0  0  0  0  0  0  0  0
    5.4641   -3.3450    0.0000 C   0  0  0  0  0  0  0  0  0  0  0  0
    8.9282    2.6550    0.0000 C   0  0  0  0  0  0  0  0  0  0  0  0
    4.5981   -4.8450    0.0000 C   0  0  0  0  0  0  0  0  0  0  0  0
    9.7942    4.1550    0.0000 C   0  0  0  0  0  0  0  0  0  0  0  0
    5.4641   -4.3450    0.0000 C   0  0  0  0  0  0  0  0  0  0  0  0
    4.5981   -1.8450    0.0000 C   0  0  0  0  0  0  0  0  0  0  0  0
    9.7942    3.1550    0.0000 C   0  0  0  0  0  0  0  0  0  0  0  0
    7.1962    2.6550    0.0000 C   0  0  0  0  0  0  0  0  0  0  0  0
    5.4641   -1.3450    0.0000 C   0  0  0  0  0  0  0  0  0  0  0  0
    7.1962    1.6550    0.0000 C   0  0  0  0  0  0  0  0  0  0  0  0
    5.4641   -0.3450    0.0000 C   0  0  0  0  0  0  0  0  0  0  0  0
    6.3301    1.1550    0.0000 C   0  0  0  0  0  0  0  0  0  0  0  0
    6.3301    0.1550    0.0000 C   0  0  0  0  0  0  0  0  0  0  0  0
    2.0000   -4.3450    0.0000 C   0  0  0  0  0  0  0  0  0  0  0  0
    8.0622    6.1550    0.0000 C   0  0  0  0  0  0  0  0  0  0  0  0
    3.1951   -3.0350    0.0000 H   0  0  0  0  0  0  0  0  0  0  0  0
    7.5252    4.4650    0.0000 H   0  0  0  0  0  0  0  0  0  0  0  0
    6.0010   -3.0350    0.0000 H   0  0  0  0  0  0  0  0  0  0  0  0
    8.9282    2.0350    0.0000 H   0  0  0  0  0  0  0  0  0  0  0  0
    6.0010   -4.6550    0.0000 H   0  0  0  0  0  0  0  0  0  0  0  0
    4.0611   -1.5350    0.0000 H   0  0  0  0  0  0  0  0  0  0  0  0
   10.3312    2.8450    0.0000 H   0  0  0  0  0  0  0  0  0  0  0  0
    6.6592    2.9650    0.0000 H   0  0  0  0  0  0  0  0  0  0  0  0
    6.0010   -1.6550    0.0000 H   0  0  0  0  0  0  0  0  0  0  0  0
    7.7331    1.3450    0.0000 H   0  0  0  0  0  0  0  0  0  0  0  0
    6.8671   -0.1550    0.0000 H   0  0  0  0  0  0  0  0  0  0  0  0
    5.1350   -6.1550    0.0000 H   0  0  0  0  0  0  0  0  0  0  0  0
    2.3100   -3.8081    0.0000 H   0  0  0  0  0  0  0  0  0  0  0  0
    1.4631   -4.0350    0.0000 H   0  0  0  0  0  0  0  0  0  0  0  0
    1.6900   -4.8819    0.0000 H   0  0  0  0  0  0  0  0  0  0  0  0
   11.1972    4.3450    0.0000 H   0  0  0  0  0  0  0  0  0  0  0  0
    8.3722    6.6919    0.0000 H   0  0  0  0  0  0  0  0  0  0  0  0
    7.5252    6.4650    0.0000 H   0  0  0  0  0  0  0  0  0  0  0  0
    7.7522    5.6181    0.0000 H   0  0  0  0  0  0  0  0  0  0  0  0
    4.5981    0.7750    0.0000 H   0  0  0  0  0  0  0  0  0  0  0  0
  1 10  1  0  0  0  0
  1 26  1  0  0  0  0
  2 12  1  0  0  0  0
  2 27  1  0  0  0  0
  3 15  1  0  0  0  0
  3 39  1  0  0  0  0
  4 16  1  0  0  0  0
  4 43  1  0  0  0  0
  5 23  1  0  0  0  0
  5 47  1  0  0  0  0
  6 24  2  0  0  0  0
  7  9  2  0  0  0  0
  7 13  1  0  0  0  0
  7 18  1  0  0  0  0
  8 11  2  0  0  0  0
  8 14  1  0  0  0  0
  8 20  1  0  0  0  0
  9 10  1  0  0  0  0
  9 28  1  0  0  0  0
 10 15  2  0  0  0  0
 11 12  1  0  0  0  0
 11 29  1  0  0  0  0
 12 16  2  0  0  0  0
 13 17  2  0  0  0  0
 13 30  1  0  0  0  0
 14 19  2  0  0  0  0
 14 31  1  0  0  0  0
 15 17  1  0  0  0  0
 16 19  1  0  0  0  0
 17 32  1  0  0  0  0
 18 21  2  0  0  0  0
 18 33  1  0  0  0  0
 19 34  1  0  0  0  0
 20 22  2  0  0  0  0
 20 35  1  0  0  0  0
 21 23  1  0  0  0  0
 21 36  1  0  0  0  0
 22 24  1  0  0  0  0
 22 37  1  0  0  0  0
 23 25  2  0  0  0  0
 24 25  1  0  0  0  0
 25 38  1  0  0  0  0
 26 40  1  0  0  0  0
 26 41  1  0  0  0  0
 26 42  1  0  0  0  0
 27 44  1  0  0  0  0
 27 45  1  0  0  0  0
 27 46  1  0  0  0  0
M  END
> <PUBCHEM_COMPOUND_CID>
5281767

> <PUBCHEM_COMPOUND_CANONICALIZED>
1

> <PUBCHEM_CACTVS_COMPLEXITY>
567

> <PUBCHEM_CACTVS_HBOND_ACCEPTOR>
6

> <PUBCHEM_CACTVS_HBOND_DONOR>
3

> <PUBCHEM_CACTVS_ROTATABLE_BOND>
7

> <PUBCHEM_CACTVS_SUBSKEYS>
AAADceB4OAAAAAAAAAAAAAAAAAAAAAAAAAAwYAAAAAAAAAABQAAAGgAACAAADASAmAIyBoAABgCIAqBSAAACCAAgIAAIiAAGiMgNJiKGMRqAcCMkwBELuYeAwBAOIAABAAAAQABAAAIAAACAAAAAAAAAAA==

> <PUBCHEM_IUPAC_OPENEYE_NAME>
(1E,4Z,6E)-5-hydroxy-1,7-bis(4-hydroxy-3-methoxy-phenyl)hepta-1,4,6-trien-3-one

> <PUBCHEM_IUPAC_CAS_NAME>
(1E,4Z,6E)-5-hydroxy-1,7-bis(4-hydroxy-3-methoxyphenyl)-3-hepta-1,4,6-trienone

> <PUBCHEM_IUPAC_NAME>
(1E,4Z,6E)-5-hydroxy-1,7-bis(4-hydroxy-3-methoxyphenyl)hepta-1,4,6-trien-3-one

> <PUBCHEM_IUPAC_SYSTEMATIC_NAME>
(1E,4Z,6E)-1,7-bis(3-methoxy-4-oxidanyl-phenyl)-5-oxidanyl-hepta-1,4,6-trien-3-one

> <PUBCHEM_IUPAC_TRADITIONAL_NAME>
(1E,4Z,6E)-5-hydroxy-1,7-bis(4-hydroxy-3-methoxy-phenyl)hepta-1,4,6-trien-3-one

> <PUBCHEM_IUPAC_INCHI>
InChI=1S/C21H20O6/c1-26-20-11-14(5-9-18(20)24)3-7-16(22)13-17(23)8-4-15-6-10-19(25)21(12-15)27-2/h3-13,22,24-25H,1-2H3/b7-3+,8-4+,16-13-

> <PUBCHEM_IUPAC_INCHIKEY>
ZIUSSTSXXLLKKK-KOBPDPAPSA-N

> <PUBCHEM_XLOGP3_AA>
4

> <PUBCHEM_EXACT_MASS>
368.126

> <PUBCHEM_MOLECULAR_FORMULA>
C21H20O6

> <PUBCHEM_MOLECULAR_WEIGHT>
368.385

> <PUBCHEM_OPENEYE_CAN_SMILES>
COC1=C(C=CC(=C1)C=CC(=CC(=O)C=CC2=CC(=C(C=C2)O)OC)O)O

> <PUBCHEM_OPENEYE_ISO_SMILES>
COC1=C(C=CC(=C1)/C=C/C(=C/C(=O)/C=C/C2=CC(=C(C=C2)O)OC)/O)O

> <PUBCHEM_CACTVS_TPSA>
96.2

> <PUBCHEM_MONOISOTOPIC_WEIGHT>
368.126

> <PUBCHEM_TOTAL_CHARGE>
0

> <PUBCHEM_HEAVY_ATOM_COUNT>
27

> <PUBCHEM_ATOM_DEF_STEREO_COUNT>
0

> <PUBCHEM_ATOM_UDEF_STEREO_COUNT>
0

> <PUBCHEM_BOND_DEF_STEREO_COUNT>
3

> <PUBCHEM_BOND_UDEF_STEREO_COUNT>
0

> <PUBCHEM_ISOTOPIC_ATOM_COUNT>
0

> <PUBCHEM_COMPONENT_COUNT>
1

> <PUBCHEM_CACTVS_TAUTO_COUNT>
51

> <PUBCHEM_COORDINATE_TYPE>
1
5
255

> <PUBCHEM_BONDANNOTATIONS>
10  15  8
11  12  8
12  16  8
13  17  8
14  19  8
15  17  8
16  19  8
7  13  8
7  9  8
8  11  8
8  14  8
9  10  8

$$$$
67128499
  -OEChem-11021605012D

 40 43  0     0  0  0  0  0  0999 V2000
    3.4030   -1.0387    0.0000 S   0  0  0  0  0  0  0  0  0  0  0  0
    8.5309   -2.0387    0.0000 O   0  0  0  0  0  0  0  0  0  0  0  0
    2.9030   -1.9047    0.0000 O   0  0  0  0  0  0  0  0  0  0  0  0
    3.9030   -0.1726    0.0000 O   0  0  0  0  0  0  0  0  0  0  0  0
    5.1962    1.2656    0.0000 N   0  0  0  0  0  0  0  0  0  0  0  0
    6.9473   -2.8434    0.0000 N   0  0  0  0  0  0  0  0  0  0  0  0
    2.5369   -0.5387    0.0000 N   0  0  0  0  0  0  0  0  0  0  0  0
    6.0010   -1.5387    0.0000 C   0  0  0  0  0  0  0  0  0  0  0  0
    6.9473   -1.2339    0.0000 C   0  0  0  0  0  0  0  0  0  0  0  0
    6.5901    0.4609    0.0000 C   0  0  0  0  0  0  0  0  0  0  0  0
    6.7993    1.4327    0.0000 C   0  0  0  0  0  0  0  0  0  0  0  0
    5.9332    1.9327    0.0000 C   0  0  0  0  0  0  0  0  0  0  0  0
    6.0010   -2.5387    0.0000 C   0  0  0  0  0  0  0  0  0  0  0  0
    7.2579   -0.2834    0.0000 C   0  0  0  0  0  0  0  0  0  0  0  0
    5.6014    0.3578    0.0000 C   0  0  0  0  0  0  0  0  0  0  0  0
    5.1350   -1.0387    0.0000 C   0  0  0  0  0  0  0  0  0  0  0  0
    7.5309   -2.0387    0.0000 C   0  0  0  0  0  0  0  0  0  0  0  0
    4.2690   -1.5387    0.0000 C   0  0  0  0  0  0  0  0  0  0  0  0
    5.1350   -3.0387    0.0000 C   0  0  0  0  0  0  0  0  0  0  0  0
    7.6653    1.9327    0.0000 C   0  0  0  0  0  0  0  0  0  0  0  0
    4.2690   -2.5387    0.0000 C   0  0  0  0  0  0  0  0  0  0  0  0
    5.9332    2.9327    0.0000 C   0  0  0  0  0  0  0  0  0  0  0  0
    4.2177    1.4719    0.0000 C   0  0  0  0  0  0  0  0  0  0  0  0
    7.6653    2.9327    0.0000 C   0  0  0  0  0  0  0  0  0  0  0  0
    6.7993    3.4327    0.0000 C   0  0  0  0  0  0  0  0  0  0  0  0
    7.8646   -0.1556    0.0000 H   0  0  0  0  0  0  0  0  0  0  0  0
    5.2914   -0.1791    0.0000 H   0  0  0  0  0  0  0  0  0  0  0  0
    5.1350   -0.4187    0.0000 H   0  0  0  0  0  0  0  0  0  0  0  0
    7.1399   -3.4327    0.0000 H   0  0  0  0  0  0  0  0  0  0  0  0
    5.1350   -3.6587    0.0000 H   0  0  0  0  0  0  0  0  0  0  0  0
    8.2022    1.6227    0.0000 H   0  0  0  0  0  0  0  0  0  0  0  0
    3.7320   -2.8487    0.0000 H   0  0  0  0  0  0  0  0  0  0  0  0
    5.3963    3.2427    0.0000 H   0  0  0  0  0  0  0  0  0  0  0  0
    4.3456    2.0785    0.0000 H   0  0  0  0  0  0  0  0  0  0  0  0
    3.6111    1.5997    0.0000 H   0  0  0  0  0  0  0  0  0  0  0  0
    4.0899    0.8652    0.0000 H   0  0  0  0  0  0  0  0  0  0  0  0
    8.2022    3.2427    0.0000 H   0  0  0  0  0  0  0  0  0  0  0  0
    6.7993    4.0527    0.0000 H   0  0  0  0  0  0  0  0  0  0  0  0
    2.0000   -0.8487    0.0000 H   0  0  0  0  0  0  0  0  0  0  0  0
    2.5369    0.0813    0.0000 H   0  0  0  0  0  0  0  0  0  0  0  0
  1  3  2  0  0  0  0
  1  4  2  0  0  0  0
  1  7  1  0  0  0  0
  1 18  1  0  0  0  0
  2 17  2  0  0  0  0
  5 12  1  0  0  0  0
  5 15  1  0  0  0  0
  5 23  1  0  0  0  0
  6 13  1  0  0  0  0
  6 17  1  0  0  0  0
  6 29  1  0  0  0  0
  7 39  1  0  0  0  0
  7 40  1  0  0  0  0
  8  9  1  0  0  0  0
  8 13  2  0  0  0  0
  8 16  1  0  0  0  0
  9 14  2  0  0  0  0
  9 17  1  0  0  0  0
 10 11  1  0  0  0  0
 10 14  1  0  0  0  0
 10 15  2  0  0  0  0
 11 12  1  0  0  0  0
 11 20  2  0  0  0  0
 12 22  2  0  0  0  0
 13 19  1  0  0  0  0
 14 26  1  0  0  0  0
 15 27  1  0  0  0  0
 16 18  2  0  0  0  0
 16 28  1  0  0  0  0
 18 21  1  0  0  0  0
 19 21  2  0  0  0  0
 19 30  1  0  0  0  0
 20 24  1  0  0  0  0
 20 31  1  0  0  0  0
 21 32  1  0  0  0  0
 22 25  1  0  0  0  0
 22 33  1  0  0  0  0
 23 34  1  0  0  0  0
 23 35  1  0  0  0  0
 23 36  1  0  0  0  0
 24 25  2  0  0  0  0
 24 37  1  0  0  0  0
 25 38  1  0  0  0  0
M  END
> <PUBCHEM_COMPOUND_CID>
67128499

> <PUBCHEM_COMPOUND_CANONICALIZED>
1

> <PUBCHEM_CACTVS_COMPLEXITY>
684

> <PUBCHEM_CACTVS_HBOND_ACCEPTOR>
4

> <PUBCHEM_CACTVS_HBOND_DONOR>
2

> <PUBCHEM_CACTVS_ROTATABLE_BOND>
2

> <PUBCHEM_CACTVS_SUBSKEYS>
AAADccB7MABAAAAAAAAAAAAAAAAAAWLAAAAwYAAAAAAAAFgB9AAAHgQQQAAADAjB3gQ+wfPMEAKoAzV3VHDCgDAxAiAI2Dk4ZNgIIPLAlZGEIAhglADIyYcciMCOgAQAgAACAAAACAEAAAQAAAAAAAAAAA==

> <PUBCHEM_IUPAC_OPENEYE_NAME>
(3E)-3-[(1-methylindol-3-yl)methylene]-2-oxo-indoline-5-sulfonamide

> <PUBCHEM_IUPAC_CAS_NAME>
(3E)-3-[(1-methyl-3-indolyl)methylidene]-2-oxo-1H-indole-5-sulfonamide

> <PUBCHEM_IUPAC_NAME>
(3E)-3-[(1-methylindol-3-yl)methylidene]-2-oxo-1H-indole-5-sulfonamide

> <PUBCHEM_IUPAC_SYSTEMATIC_NAME>
(3E)-3-[(1-methylindol-3-yl)methylidene]-2-oxidanylidene-1H-indole-5-sulfonamide

> <PUBCHEM_IUPAC_TRADITIONAL_NAME>
(3E)-2-keto-3-[(1-methylindol-3-yl)methylene]indoline-5-sulfonamide

> <PUBCHEM_IUPAC_INCHI>
InChI=1S/C18H15N3O3S/c1-21-10-11(13-4-2-3-5-17(13)21)8-15-14-9-12(25(19,23)24)6-7-16(14)20-18(15)22/h2-10H,1H3,(H,20,22)(H2,19,23,24)/b15-8+

> <PUBCHEM_IUPAC_INCHIKEY>
MLKHXLFEYOOYEY-OVCLIPMQSA-N

> <PUBCHEM_XLOGP3_AA>
1.5

> <PUBCHEM_EXACT_MASS>
353.083

> <PUBCHEM_MOLECULAR_FORMULA>
C18H15N3O3S

> <PUBCHEM_MOLECULAR_WEIGHT>
353.396

> <PUBCHEM_OPENEYE_CAN_SMILES>
CN1C=C(C2=CC=CC=C21)C=C3C4=C(C=CC(=C4)S(=O)(=O)N)NC3=O

> <PUBCHEM_OPENEYE_ISO_SMILES>
CN1C=C(C2=CC=CC=C21)/C=C/3\C4=C(C=CC(=C4)S(=O)(=O)N)NC3=O

> <PUBCHEM_CACTVS_TPSA>
103

> <PUBCHEM_MONOISOTOPIC_WEIGHT>
353.083

> <PUBCHEM_TOTAL_CHARGE>
0

> <PUBCHEM_HEAVY_ATOM_COUNT>
25

> <PUBCHEM_ATOM_DEF_STEREO_COUNT>
0

> <PUBCHEM_ATOM_UDEF_STEREO_COUNT>
0

> <PUBCHEM_BOND_DEF_STEREO_COUNT>
1

> <PUBCHEM_BOND_UDEF_STEREO_COUNT>
0

> <PUBCHEM_ISOTOPIC_ATOM_COUNT>
0

> <PUBCHEM_COMPONENT_COUNT>
1

> <PUBCHEM_CACTVS_TAUTO_COUNT>
3

> <PUBCHEM_COORDINATE_TYPE>
1
5
255

> <PUBCHEM_BONDANNOTATIONS>
10  11  8
10  15  8
11  12  8
11  20  8
12  22  8
13  19  8
16  18  8
18  21  8
19  21  8
20  24  8
22  25  8
24  25  8
5  12  8
5  15  8
8  13  8
8  16  8

$$$$
3035462
  -OEChem-11021605012D

 29 31  0     0  0  0  0  0  0999 V2000
    6.7568   -1.3158    0.0000 Br  0  0  0  0  0  0  0  0  0  0  0  0
    3.6781   -3.4296    0.0000 O   0  0  0  0  0  0  0  0  0  0  0  0
    2.0000    1.4223    0.0000 O   0  0  0  0  0  0  0  0  0  0  0  0
    2.4747   -2.2382    0.0000 N   0  0  0  0  0  0  0  0  0  0  0  0
    5.1772   -2.1285    0.0000 N   0  0  0  0  0  0  0  0  0  0  0  0
    4.5748    1.1647    0.0000 N   0  0  0  0  0  0  0  0  0  0  0  0
    3.5041    2.3779    0.0000 N   0  0  0  0  0  0  0  0  0  0  0  0
    5.2299    2.8219    0.0000 N   0  0  0  0  0  0  0  0  0  0  0  0
    3.4395   -0.2089    0.0000 C   0  0  0  0  0  0  0  0  0  0  0  0
    2.4657   -0.4363    0.0000 C   0  0  0  0  0  0  0  0  0  0  0  0
    4.2245   -0.8285    0.0000 C   0  0  0  0  0  0  0  0  0  0  0  0
    2.0364   -1.3394    0.0000 C   0  0  0  0  0  0  0  0  0  0  0  0
    4.2295   -1.8285    0.0000 C   0  0  0  0  0  0  0  0  0  0  0  0
    3.6572    0.7671    0.0000 C   0  0  0  0  0  0  0  0  0  0  0  0
    5.1692   -0.5190    0.0000 C   0  0  0  0  0  0  0  0  0  0  0  0
    3.4508   -2.4558    0.0000 C   0  0  0  0  0  0  0  0  0  0  0  0
    5.7568   -1.3208    0.0000 C   0  0  0  0  0  0  0  0  0  0  0  0
    2.9955    1.5169    0.0000 C   0  0  0  0  0  0  0  0  0  0  0  0
    4.4802    2.1603    0.0000 C   0  0  0  0  0  0  0  0  0  0  0  0
    2.4626    0.1837    0.0000 H   0  0  0  0  0  0  0  0  0  0  0  0
    1.8606   -0.3013    0.0000 H   0  0  0  0  0  0  0  0  0  0  0  0
    1.5497   -0.9552    0.0000 H   0  0  0  0  0  0  0  0  0  0  0  0
    1.5536   -1.7284    0.0000 H   0  0  0  0  0  0  0  0  0  0  0  0
    2.0906   -2.7248    0.0000 H   0  0  0  0  0  0  0  0  0  0  0  0
    5.3588    0.0712    0.0000 H   0  0  0  0  0  0  0  0  0  0  0  0
    5.3727   -2.7168    0.0000 H   0  0  0  0  0  0  0  0  0  0  0  0
    5.1086    0.8494    0.0000 H   0  0  0  0  0  0  0  0  0  0  0  0
    5.1071    3.4296    0.0000 H   0  0  0  0  0  0  0  0  0  0  0  0
    5.8177    2.6245    0.0000 H   0  0  0  0  0  0  0  0  0  0  0  0
  1 17  1  0  0  0  0
  2 16  2  0  0  0  0
  3 18  2  0  0  0  0
  4 12  1  0  0  0  0
  4 16  1  0  0  0  0
  4 24  1  0  0  0  0
  5 13  1  0  0  0  0
  5 17  1  0  0  0  0
  5 26  1  0  0  0  0
  6 14  1  0  0  0  0
  6 19  1  0  0  0  0
  6 27  1  0  0  0  0
  7 18  1  0  0  0  0
  7 19  2  0  0  0  0
  8 19  1  0  0  0  0
  8 28  1  0  0  0  0
  8 29  1  0  0  0  0
  9 10  1  0  0  0  0
  9 11  1  0  0  0  0
  9 14  2  0  0  0  0
 10 12  1  0  0  0  0
 10 20  1  0  0  0  0
 10 21  1  0  0  0  0
 11 13  2  0  0  0  0
 11 15  1  0  0  0  0
 12 22  1  0  0  0  0
 12 23  1  0  0  0  0
 13 16  1  0  0  0  0
 14 18  1  0  0  0  0
 15 17  2  0  0  0  0
 15 25  1  0  0  0  0
M  END
> <PUBCHEM_COMPOUND_CID>
3035462

> <PUBCHEM_COMPOUND_CANONICALIZED>
1

> <PUBCHEM_CACTVS_COMPLEXITY>
515

> <PUBCHEM_CACTVS_HBOND_ACCEPTOR>
2

> <PUBCHEM_CACTVS_HBOND_DONOR>
4

> <PUBCHEM_CACTVS_ROTATABLE_BOND>
0

> <PUBCHEM_CACTVS_SUBSKEYS>
AAADccBzsAAAEAAAAAAAAAAAAAAAAWIAAAAAAAAABYAAAACxgAAAHgBQAAABPAjBngQxgJLJkACoAyVydACCgCEnAiQBmaG4ZPiIYPLAnLGUAQhglgLIyxcYCQAOAAAAAAAAAAAAAAAAAAAAAAAAAAAAAA==

> <PUBCHEM_IUPAC_OPENEYE_NAME>
(4Z)-4-(2-amino-4-oxo-1H-imidazol-5-ylidene)-2-bromo-1,5,6,7-tetrahydropyrrolo[2,3-c]azepin-8-one

> <PUBCHEM_IUPAC_CAS_NAME>
(4Z)-4-(2-amino-4-oxo-1H-imidazol-5-ylidene)-2-bromo-1,5,6,7-tetrahydropyrrolo[2,3-c]azepin-8-one

> <PUBCHEM_IUPAC_NAME>
(4Z)-4-(2-amino-4-oxo-1H-imidazol-5-ylidene)-2-bromo-1,5,6,7-tetrahydropyrrolo[2,3-c]azepin-8-one

> <PUBCHEM_IUPAC_SYSTEMATIC_NAME>
(4Z)-4-(2-azanyl-4-oxidanylidene-1H-imidazol-5-ylidene)-2-bromanyl-1,5,6,7-tetrahydropyrrolo[2,3-c]azepin-8-one

> <PUBCHEM_IUPAC_TRADITIONAL_NAME>
(4Z)-4-(2-amino-5-keto-2-imidazolin-4-ylidene)-2-bromo-1,5,6,7-tetrahydropyrrol[2,3-c]azepin-8-one

> <PUBCHEM_IUPAC_INCHI>
InChI=1S/C11H10BrN5O2/c12-6-3-5-4(7-10(19)17-11(13)16-7)1-2-14-9(18)8(5)15-6/h3,15H,1-2H2,(H,14,18)(H3,13,16,17,19)/b7-4-

> <PUBCHEM_IUPAC_INCHIKEY>
ATBAETXFFCOZOY-DAXSKMNVSA-N

> <PUBCHEM_XLOGP3_AA>
-0.7

> <PUBCHEM_EXACT_MASS>
323.002

> <PUBCHEM_MOLECULAR_FORMULA>
C11H10BrN5O2

> <PUBCHEM_MOLECULAR_WEIGHT>
324.138

> <PUBCHEM_OPENEYE_CAN_SMILES>
C1CNC(=O)C2=C(C1=C3C(=O)N=C(N3)N)C=C(N2)Br

> <PUBCHEM_OPENEYE_ISO_SMILES>
C\1CNC(=O)C2=C(/C1=C\3/C(=O)N=C(N3)N)C=C(N2)Br

> <PUBCHEM_CACTVS_TPSA>
112

> <PUBCHEM_MONOISOTOPIC_WEIGHT>
323.002

> <PUBCHEM_TOTAL_CHARGE>
0

> <PUBCHEM_HEAVY_ATOM_COUNT>
19

> <PUBCHEM_ATOM_DEF_STEREO_COUNT>
0

> <PUBCHEM_ATOM_UDEF_STEREO_COUNT>
0

> <PUBCHEM_BOND_DEF_STEREO_COUNT>
1

> <PUBCHEM_BOND_UDEF_STEREO_COUNT>
0

> <PUBCHEM_ISOTOPIC_ATOM_COUNT>
0

> <PUBCHEM_COMPONENT_COUNT>
1

> <PUBCHEM_CACTVS_TAUTO_COUNT>
151

> <PUBCHEM_COORDINATE_TYPE>
1
5
255

> <PUBCHEM_BONDANNOTATIONS>
11  13  8
11  15  8
15  17  8
5  13  8
5  17  8

$$$$
4705
  -OEChem-11021605012D

 36 38  0     0  0  0  0  0  0999 V2000
    8.0437   -3.5272    0.0000 Br  0  0  0  0  0  0  0  0  0  0  0  0
    2.8660    0.5272    0.0000 O   0  0  0  0  0  0  0  0  0  0  0  0
    2.8660    2.5272    0.0000 O   0  0  0  0  0  0  0  0  0  0  0  0
    6.3465   -0.5074    0.0000 N   0  0  0  0  0  0  0  0  0  0  0  0
    6.3580    2.5619    0.0000 N   0  0  0  0  0  0  0  0  0  0  0  0
    7.2641    1.0064    0.0000 N   0  0  0  0  0  0  0  0  0  0  0  0
    5.4641    1.0272    0.0000 C   0  0  0  0  0  0  0  0  0  0  0  0
    5.4641    2.0272    0.0000 C   0  0  0  0  0  0  0  0  0  0  0  0
    6.3580    0.4926    0.0000 C   0  0  0  0  0  0  0  0  0  0  0  0
    4.5981    0.5272    0.0000 C   0  0  0  0  0  0  0  0  0  0  0  0
    3.7320    1.0272    0.0000 C   0  0  0  0  0  0  0  0  0  0  0  0
    4.5981    2.5272    0.0000 C   0  0  0  0  0  0  0  0  0  0  0  0
    3.7320    2.0272    0.0000 C   0  0  0  0  0  0  0  0  0  0  0  0
    7.2067   -1.0174    0.0000 C   0  0  0  0  0  0  0  0  0  0  0  0
    7.2641    2.0480    0.0000 C   0  0  0  0  0  0  0  0  0  0  0  0
    7.1951   -2.0173    0.0000 C   0  0  0  0  0  0  0  0  0  0  0  0
    8.0784   -0.5274    0.0000 C   0  0  0  0  0  0  0  0  0  0  0  0
    8.0553   -2.5273    0.0000 C   0  0  0  0  0  0  0  0  0  0  0  0
    8.9386   -1.0374    0.0000 C   0  0  0  0  0  0  0  0  0  0  0  0
    8.9270   -2.0373    0.0000 C   0  0  0  0  0  0  0  0  0  0  0  0
    2.0000    1.0272    0.0000 C   0  0  0  0  0  0  0  0  0  0  0  0
    2.8660    3.5272    0.0000 C   0  0  0  0  0  0  0  0  0  0  0  0
    4.5981   -0.0928    0.0000 H   0  0  0  0  0  0  0  0  0  0  0  0
    4.5981    3.1472    0.0000 H   0  0  0  0  0  0  0  0  0  0  0  0
    5.8060   -0.8112    0.0000 H   0  0  0  0  0  0  0  0  0  0  0  0
    7.7998    2.3601    0.0000 H   0  0  0  0  0  0  0  0  0  0  0  0
    6.6546   -2.3211    0.0000 H   0  0  0  0  0  0  0  0  0  0  0  0
    8.0856    0.0925    0.0000 H   0  0  0  0  0  0  0  0  0  0  0  0
    9.4791   -0.7336    0.0000 H   0  0  0  0  0  0  0  0  0  0  0  0
    9.4604   -2.3535    0.0000 H   0  0  0  0  0  0  0  0  0  0  0  0
    2.3100    1.5642    0.0000 H   0  0  0  0  0  0  0  0  0  0  0  0
    1.4631    1.3372    0.0000 H   0  0  0  0  0  0  0  0  0  0  0  0
    1.6900    0.4903    0.0000 H   0  0  0  0  0  0  0  0  0  0  0  0
    3.4860    3.5272    0.0000 H   0  0  0  0  0  0  0  0  0  0  0  0
    2.8660    4.1472    0.0000 H   0  0  0  0  0  0  0  0  0  0  0  0
    2.2460    3.5272    0.0000 H   0  0  0  0  0  0  0  0  0  0  0  0
  1 18  1  0  0  0  0
  2 11  1  0  0  0  0
  2 21  1  0  0  0  0
  3 13  1  0  0  0  0
  3 22  1  0  0  0  0
  4  9  1  0  0  0  0
  4 14  1  0  0  0  0
  4 25  1  0  0  0  0
  5  8  1  0  0  0  0
  5 15  2  0  0  0  0
  6  9  2  0  0  0  0
  6 15  1  0  0  0  0
  7  8  1  0  0  0  0
  7  9  1  0  0  0  0
  7 10  2  0  0  0  0
  8 12  2  0  0  0  0
 10 11  1  0  0  0  0
 10 23  1  0  0  0  0
 11 13  2  0  0  0  0
 12 13  1  0  0  0  0
 12 24  1  0  0  0  0
 14 16  2  0  0  0  0
 14 17  1  0  0  0  0
 15 26  1  0  0  0  0
 16 18  1  0  0  0  0
 16 27  1  0  0  0  0
 17 19  2  0  0  0  0
 17 28  1  0  0  0  0
 18 20  2  0  0  0  0
 19 20  1  0  0  0  0
 19 29  1  0  0  0  0
 20 30  1  0  0  0  0
 21 31  1  0  0  0  0
 21 32  1  0  0  0  0
 21 33  1  0  0  0  0
 22 34  1  0  0  0  0
 22 35  1  0  0  0  0
 22 36  1  0  0  0  0
M  END
> <PUBCHEM_COMPOUND_CID>
4705

> <PUBCHEM_COMPOUND_CANONICALIZED>
1

> <PUBCHEM_CACTVS_COMPLEXITY>
360

> <PUBCHEM_CACTVS_HBOND_ACCEPTOR>
5

> <PUBCHEM_CACTVS_HBOND_DONOR>
1

> <PUBCHEM_CACTVS_ROTATABLE_BOND>
4

> <PUBCHEM_CACTVS_SUBSKEYS>
AAADccB7MAAAEAAAAAAAAAAAAAAAAAAAAAA8YIAAAAAAAACx9AAAHgBQAAABrAyBngY39vbIFACgAyZjZACCiCkxIqQJ2CA+7LiNLuLE+duENCpu0BvK6jew0BMOIEABAgECQABAgAIEAgSAAAAAAAAAAA==

> <PUBCHEM_IUPAC_OPENEYE_NAME>
N-(3-bromophenyl)-6,7-dimethoxy-quinazolin-4-amine

> <PUBCHEM_IUPAC_CAS_NAME>
N-(3-bromophenyl)-6,7-dimethoxy-4-quinazolinamine

> <PUBCHEM_IUPAC_NAME>
N-(3-bromophenyl)-6,7-dimethoxyquinazolin-4-amine

> <PUBCHEM_IUPAC_SYSTEMATIC_NAME>
N-(3-bromophenyl)-6,7-dimethoxy-quinazolin-4-amine

> <PUBCHEM_IUPAC_TRADITIONAL_NAME>
(3-bromophenyl)-(6,7-dimethoxyquinazolin-4-yl)amine

> <PUBCHEM_IUPAC_INCHI>
InChI=1S/C16H14BrN3O2/c1-21-14-7-12-13(8-15(14)22-2)18-9-19-16(12)20-11-5-3-4-10(17)6-11/h3-9H,1-2H3,(H,18,19,20)

> <PUBCHEM_IUPAC_INCHIKEY>
LSPANGZZENHZNJ-UHFFFAOYSA-N

> <PUBCHEM_XLOGP3_AA>
4

> <PUBCHEM_EXACT_MASS>
359.027

> <PUBCHEM_MOLECULAR_FORMULA>
C16H14BrN3O2

> <PUBCHEM_MOLECULAR_WEIGHT>
360.211

> <PUBCHEM_OPENEYE_CAN_SMILES>
COC1=C(C=C2C(=C1)C(=NC=N2)NC3=CC(=CC=C3)Br)OC

> <PUBCHEM_OPENEYE_ISO_SMILES>
COC1=C(C=C2C(=C1)C(=NC=N2)NC3=CC(=CC=C3)Br)OC

> <PUBCHEM_CACTVS_TPSA>
56.3

> <PUBCHEM_MONOISOTOPIC_WEIGHT>
359.027

> <PUBCHEM_TOTAL_CHARGE>
0

> <PUBCHEM_HEAVY_ATOM_COUNT>
22

> <PUBCHEM_ATOM_DEF_STEREO_COUNT>
0

> <PUBCHEM_ATOM_UDEF_STEREO_COUNT>
0

> <PUBCHEM_BOND_DEF_STEREO_COUNT>
0

> <PUBCHEM_BOND_UDEF_STEREO_COUNT>
0

> <PUBCHEM_ISOTOPIC_ATOM_COUNT>
0

> <PUBCHEM_COMPONENT_COUNT>
1

> <PUBCHEM_CACTVS_TAUTO_COUNT>
3

> <PUBCHEM_COORDINATE_TYPE>
1
5
255

> <PUBCHEM_BONDANNOTATIONS>
10  11  8
11  13  8
12  13  8
14  16  8
14  17  8
16  18  8
17  19  8
18  20  8
19  20  8
5  15  8
5  8  8
6  15  8
6  9  8
7  10  8
7  8  8
7  9  8
8  12  8

$$$$
16664484
  -OEChem-11021605012D

 40 45  0     0  0  0  0  0  0999 V2000
    8.0260    0.3500    0.0000 Br  0  0  0  0  0  0  0  0  0  0  0  0
    2.0000   -2.7560    0.0000 O   0  0  0  0  0  0  0  0  0  0  0  0
    5.2173   -4.2067    0.0000 O   0  0  0  0  0  0  0  0  0  0  0  0
    3.0271   -0.8171    0.0000 N   0  0  0  0  0  0  0  0  0  0  0  0
    3.0271    1.5170    0.0000 N   0  0  0  0  0  0  0  0  0  0  0  0
    7.0260    0.3500    0.0000 N   0  0  0  0  0  0  0  0  0  0  0  0
    4.6302   -0.6500    0.0000 C   0  0  0  0  0  0  0  0  0  0  0  0
    4.6302    1.3500    0.0000 C   0  0  0  0  0  0  0  0  0  0  0  0
    3.7642   -0.1500    0.0000 C   0  0  0  0  0  0  0  0  0  0  0  0
    3.7642    0.8500    0.0000 C   0  0  0  0  0  0  0  0  0  0  0  0
    4.4210    2.3218    0.0000 C   0  0  0  0  0  0  0  0  0  0  0  0
    4.4210   -1.6219    0.0000 C   0  0  0  0  0  0  0  0  0  0  0  0
    5.4962   -0.1500    0.0000 C   0  0  0  0  0  0  0  0  0  0  0  0
    5.4962    0.8500    0.0000 C   0  0  0  0  0  0  0  0  0  0  0  0
    3.4322   -1.7249    0.0000 C   0  0  0  0  0  0  0  0  0  0  0  0
    3.4322    2.4248    0.0000 C   0  0  0  0  0  0  0  0  0  0  0  0
    5.0417    3.1505    0.0000 C   0  0  0  0  0  0  0  0  0  0  0  0
    5.0417   -2.4506    0.0000 C   0  0  0  0  0  0  0  0  0  0  0  0
    4.6270    4.0993    0.0000 C   0  0  0  0  0  0  0  0  0  0  0  0
    6.4424   -0.4548    0.0000 C   0  0  0  0  0  0  0  0  0  0  0  0
    6.4424    1.1547    0.0000 C   0  0  0  0  0  0  0  0  0  0  0  0
    2.9957   -2.6639    0.0000 C   0  0  0  0  0  0  0  0  0  0  0  0
    3.5972   -3.5068    0.0000 C   0  0  0  0  0  0  0  0  0  0  0  0
    2.9957    3.3638    0.0000 C   0  0  0  0  0  0  0  0  0  0  0  0
    4.6270   -3.3994    0.0000 C   0  0  0  0  0  0  0  0  0  0  0  0
    3.5972    4.2067    0.0000 C   0  0  0  0  0  0  0  0  0  0  0  0
    2.4205   -0.6893    0.0000 H   0  0  0  0  0  0  0  0  0  0  0  0
    2.4205    1.3892    0.0000 H   0  0  0  0  0  0  0  0  0  0  0  0
    5.4670    2.6994    0.0000 H   0  0  0  0  0  0  0  0  0  0  0  0
    5.5590    3.4924    0.0000 H   0  0  0  0  0  0  0  0  0  0  0  0
    5.5590   -2.7925    0.0000 H   0  0  0  0  0  0  0  0  0  0  0  0
    5.4670   -1.9995    0.0000 H   0  0  0  0  0  0  0  0  0  0  0  0
    5.2293    4.2468    0.0000 H   0  0  0  0  0  0  0  0  0  0  0  0
    4.5849    4.7179    0.0000 H   0  0  0  0  0  0  0  0  0  0  0  0
    6.6350   -1.0441    0.0000 H   0  0  0  0  0  0  0  0  0  0  0  0
    6.6350    1.7440    0.0000 H   0  0  0  0  0  0  0  0  0  0  0  0
    3.0383   -3.7752    0.0000 H   0  0  0  0  0  0  0  0  0  0  0  0
    3.7660   -4.1033    0.0000 H   0  0  0  0  0  0  0  0  0  0  0  0
    2.3784    3.4209    0.0000 H   0  0  0  0  0  0  0  0  0  0  0  0
    3.3423    4.7719    0.0000 H   0  0  0  0  0  0  0  0  0  0  0  0
  1  6  1  0  0  0  0
  2 22  2  0  0  0  0
  3 25  2  0  0  0  0
  4  9  1  0  0  0  0
  4 15  1  0  0  0  0
  4 27  1  0  0  0  0
  5 10  1  0  0  0  0
  5 16  1  0  0  0  0
  5 28  1  0  0  0  0
  6 20  1  0  0  0  0
  6 21  1  0  0  0  0
  7  9  2  0  0  0  0
  7 12  1  0  0  0  0
  7 13  1  0  0  0  0
  8 10  2  0  0  0  0
  8 11  1  0  0  0  0
  8 14  1  0  0  0  0
  9 10  1  0  0  0  0
 11 16  2  0  0  0  0
 11 17  1  0  0  0  0
 12 15  2  0  0  0  0
 12 18  1  0  0  0  0
 13 14  1  0  0  0  0
 13 20  2  0  0  0  0
 14 21  2  0  0  0  0
 15 22  1  0  0  0  0
 16 24  1  0  0  0  0
 17 19  1  0  0  0  0
 17 29  1  0  0  0  0
 17 30  1  0  0  0  0
 18 25  1  0  0  0  0
 18 31  1  0  0  0  0
 18 32  1  0  0  0  0
 19 26  1  0  0  0  0
 19 33  1  0  0  0  0
 19 34  1  0  0  0  0
 20 35  1  0  0  0  0
 21 36  1  0  0  0  0
 22 23  1  0  0  0  0
 23 25  1  0  0  0  0
 23 37  1  0  0  0  0
 23 38  1  0  0  0  0
 24 26  2  0  0  0  0
 24 39  1  0  0  0  0
 26 40  1  0  0  0  0
M  END
> <PUBCHEM_COMPOUND_CID>
16664484

> <PUBCHEM_COMPOUND_CANONICALIZED>
1

> <PUBCHEM_CACTVS_COMPLEXITY>
697

> <PUBCHEM_CACTVS_HBOND_ACCEPTOR>
2

> <PUBCHEM_CACTVS_HBOND_DONOR>
2

> <PUBCHEM_CACTVS_ROTATABLE_BOND>
0

> <PUBCHEM_CACTVS_SUBSKEYS>
AAADccB7MAAAEAAAAAAAAAAAAAAAAWLFgAAwYIAAAAAAAFgB/gAAHgAQEAAADAzBngQswPLJkACoA7R3RACCgCQ3ECAI2SG4VNgIYHLIlbGUIQhgkADIyQcci8C+yAACQAASACCQAASAACQAQAAAAAAAAA==

> <PUBCHEM_IUPAC_INCHI>
InChI=1S/C20H14BrN3O2/c21-24-7-12-13(8-24)17-11-5-9(25)6-15(26)18(11)23-20(17)19-16(12)10-3-1-2-4-14(10)22-19/h2,4,7-8,22-23H,1,3,5-6H2

> <PUBCHEM_IUPAC_INCHIKEY>
NFAYQVIGCOLOHH-UHFFFAOYSA-N

> <PUBCHEM_XLOGP3_AA>
3.2

> <PUBCHEM_EXACT_MASS>
407.027

> <PUBCHEM_MOLECULAR_FORMULA>
C20H14BrN3O2

> <PUBCHEM_MOLECULAR_WEIGHT>
408.255

> <PUBCHEM_OPENEYE_CAN_SMILES>
C1CC2=C(C=C1)NC3=C2C4=CN(C=C4C5=C3NC6=C5CC(=O)CC6=O)Br

> <PUBCHEM_OPENEYE_ISO_SMILES>
C1CC2=C(C=C1)NC3=C2C4=CN(C=C4C5=C3NC6=C5CC(=O)CC6=O)Br

> <PUBCHEM_CACTVS_TPSA>
70.6

> <PUBCHEM_MONOISOTOPIC_WEIGHT>
407.027

> <PUBCHEM_TOTAL_CHARGE>
0

> <PUBCHEM_HEAVY_ATOM_COUNT>
26

> <PUBCHEM_ATOM_DEF_STEREO_COUNT>
0

> <PUBCHEM_ATOM_UDEF_STEREO_COUNT>
0

> <PUBCHEM_BOND_DEF_STEREO_COUNT>
0

> <PUBCHEM_BOND_UDEF_STEREO_COUNT>
0

> <PUBCHEM_ISOTOPIC_ATOM_COUNT>
0

> <PUBCHEM_COMPONENT_COUNT>
1

> <PUBCHEM_CACTVS_TAUTO_COUNT>
500

> <PUBCHEM_COORDINATE_TYPE>
1
5
255

> <PUBCHEM_BONDANNOTATIONS>
11  16  8
12  15  8
13  14  8
13  20  8
14  21  8
4  15  8
4  9  8
5  10  8
5  16  8
6  20  8
6  21  8
7  12  8
7  13  8
7  9  8
8  10  8
8  11  8
8  14  8
9  10  8

$$$$
60197316
  -OEChem-11021605012D

 47 49  0     0  0  0  0  0  0999 V2000
    4.5981    0.4827    0.0000 S   0  0  0  0  0  0  0  0  0  0  0  0
    4.0981   -0.3834    0.0000 O   0  0  0  0  0  0  0  0  0  0  0  0
    5.0981    1.3487    0.0000 O   0  0  0  0  0  0  0  0  0  0  0  0
   12.4087   -1.0519    0.0000 O   0  0  0  0  0  0  0  0  0  0  0  0
    5.4641   -0.0173    0.0000 N   0  0  0  0  0  0  0  0  0  0  0  0
    8.9282   -0.0173    0.0000 N   0  0  0  0  0  0  0  0  0  0  0  0
   13.3263    0.4619    0.0000 N   0  0  0  0  0  0  0  0  0  0  0  0
   12.4202    2.0173    0.0000 N   0  0  0  0  0  0  0  0  0  0  0  0
    7.1962   -2.0173    0.0000 N   0  0  0  0  0  0  0  0  0  0  0  0
    3.7320    0.9827    0.0000 C   0  0  0  0  0  0  0  0  0  0  0  0
    2.8660    0.4827    0.0000 C   0  0  0  0  0  0  0  0  0  0  0  0
    6.3301    0.4827    0.0000 C   0  0  0  0  0  0  0  0  0  0  0  0
    8.0622    0.4827    0.0000 C   0  0  0  0  0  0  0  0  0  0  0  0
    7.1962   -0.0173    0.0000 C   0  0  0  0  0  0  0  0  0  0  0  0
    9.7942    0.4827    0.0000 C   0  0  0  0  0  0  0  0  0  0  0  0
   11.5263    0.4827    0.0000 C   0  0  0  0  0  0  0  0  0  0  0  0
   10.6603   -0.0173    0.0000 C   0  0  0  0  0  0  0  0  0  0  0  0
   11.5263    1.4827    0.0000 C   0  0  0  0  0  0  0  0  0  0  0  0
    6.3301    1.4827    0.0000 C   0  0  0  0  0  0  0  0  0  0  0  0
    2.0000    0.9827    0.0000 C   0  0  0  0  0  0  0  0  0  0  0  0
    8.0622    1.4827    0.0000 C   0  0  0  0  0  0  0  0  0  0  0  0
    9.7942    1.4827    0.0000 C   0  0  0  0  0  0  0  0  0  0  0  0
   10.6603    1.9827    0.0000 C   0  0  0  0  0  0  0  0  0  0  0  0
   12.4202   -0.0520    0.0000 C   0  0  0  0  0  0  0  0  0  0  0  0
    7.1962    1.9827    0.0000 C   0  0  0  0  0  0  0  0  0  0  0  0
   13.3263    1.5035    0.0000 C   0  0  0  0  0  0  0  0  0  0  0  0
   14.1904   -0.0415    0.0000 C   0  0  0  0  0  0  0  0  0  0  0  0
    7.1962   -1.0173    0.0000 C   0  0  0  0  0  0  0  0  0  0  0  0
    4.1306    1.4576    0.0000 H   0  0  0  0  0  0  0  0  0  0  0  0
    3.3335    1.4576    0.0000 H   0  0  0  0  0  0  0  0  0  0  0  0
    2.4675    0.0077    0.0000 H   0  0  0  0  0  0  0  0  0  0  0  0
    3.2646    0.0077    0.0000 H   0  0  0  0  0  0  0  0  0  0  0  0
    5.4641   -0.6373    0.0000 H   0  0  0  0  0  0  0  0  0  0  0  0
    8.9282   -0.6373    0.0000 H   0  0  0  0  0  0  0  0  0  0  0  0
   10.6603   -0.6373    0.0000 H   0  0  0  0  0  0  0  0  0  0  0  0
    5.7932    1.7927    0.0000 H   0  0  0  0  0  0  0  0  0  0  0  0
    2.3100    1.5196    0.0000 H   0  0  0  0  0  0  0  0  0  0  0  0
    1.4631    1.2927    0.0000 H   0  0  0  0  0  0  0  0  0  0  0  0
    1.6900    0.4457    0.0000 H   0  0  0  0  0  0  0  0  0  0  0  0
    8.5991    1.7927    0.0000 H   0  0  0  0  0  0  0  0  0  0  0  0
    9.2573    1.7927    0.0000 H   0  0  0  0  0  0  0  0  0  0  0  0
   10.6603    2.6027    0.0000 H   0  0  0  0  0  0  0  0  0  0  0  0
    7.1962    2.6027    0.0000 H   0  0  0  0  0  0  0  0  0  0  0  0
   13.8620    1.8156    0.0000 H   0  0  0  0  0  0  0  0  0  0  0  0
   13.8783   -0.5772    0.0000 H   0  0  0  0  0  0  0  0  0  0  0  0
   14.7261   -0.3535    0.0000 H   0  0  0  0  0  0  0  0  0  0  0  0
   14.5024    0.4943    0.0000 H   0  0  0  0  0  0  0  0  0  0  0  0
  1  2  2  0  0  0  0
  1  3  2  0  0  0  0
  1  5  1  0  0  0  0
  1 10  1  0  0  0  0
  4 24  2  0  0  0  0
  5 12  1  0  0  0  0
  5 33  1  0  0  0  0
  6 13  1  0  0  0  0
  6 15  1  0  0  0  0
  6 34  1  0  0  0  0
  7 24  1  0  0  0  0
  7 26  1  0  0  0  0
  7 27  1  0  0  0  0
  8 18  1  0  0  0  0
  8 26  2  0  0  0  0
  9 28  3  0  0  0  0
 10 11  1  0  0  0  0
 10 29  1  0  0  0  0
 10 30  1  0  0  0  0
 11 20  1  0  0  0  0
 11 31  1  0  0  0  0
 11 32  1  0  0  0  0
 12 14  1  0  0  0  0
 12 19  2  0  0  0  0
 13 14  2  0  0  0  0
 13 21  1  0  0  0  0
 14 28  1  0  0  0  0
 15 17  2  0  0  0  0
 15 22  1  0  0  0  0
 16 17  1  0  0  0  0
 16 18  2  0  0  0  0
 16 24  1  0  0  0  0
 17 35  1  0  0  0  0
 18 23  1  0  0  0  0
 19 25  1  0  0  0  0
 19 36  1  0  0  0  0
 20 37  1  0  0  0  0
 20 38  1  0  0  0  0
 20 39  1  0  0  0  0
 21 25  2  0  0  0  0
 21 40  1  0  0  0  0
 22 23  2  0  0  0  0
 22 41  1  0  0  0  0
 23 42  1  0  0  0  0
 25 43  1  0  0  0  0
 26 44  1  0  0  0  0
 27 45  1  0  0  0  0
 27 46  1  0  0  0  0
 27 47  1  0  0  0  0
M  END
> <PUBCHEM_COMPOUND_CID>
60197316

> <PUBCHEM_COMPOUND_CANONICALIZED>
1

> <PUBCHEM_CACTVS_COMPLEXITY>
753

> <PUBCHEM_CACTVS_HBOND_ACCEPTOR>
7

> <PUBCHEM_CACTVS_HBOND_DONOR>
2

> <PUBCHEM_CACTVS_ROTATABLE_BOND>
6

> <PUBCHEM_CACTVS_SUBSKEYS>
AAADceB7sABAAAAAAAAAAAAAAAAAAAAAAAAwYIAAAAAAAACBQAAAHgQQQAAADAiF2ASzwIPAAAK4BiVTdHDiAAElAgAJiAEIZMgIoHrA3dGEIYhgkgDIyc8ciACOAACAQAQCAAAAAQCACAQAAAAAAAAAAA==

> <PUBCHEM_IUPAC_OPENEYE_NAME>
N-[2-cyano-3-[(3-methyl-4-oxo-quinazolin-6-yl)amino]phenyl]propane-1-sulfonamide

> <PUBCHEM_IUPAC_CAS_NAME>
N-[2-cyano-3-[(3-methyl-4-oxo-6-quinazolinyl)amino]phenyl]-1-propanesulfonamide

> <PUBCHEM_IUPAC_NAME>
N-[2-cyano-3-[(3-methyl-4-oxoquinazolin-6-yl)amino]phenyl]propane-1-sulfonamide

> <PUBCHEM_IUPAC_SYSTEMATIC_NAME>
N-[2-cyano-3-[(3-methyl-4-oxidanylidene-quinazolin-6-yl)amino]phenyl]propane-1-sulfonamide

> <PUBCHEM_IUPAC_TRADITIONAL_NAME>
N-[2-cyano-3-[(4-keto-3-methyl-quinazolin-6-yl)amino]phenyl]propane-1-sulfonamide

> <PUBCHEM_IUPAC_INCHI>
InChI=1S/C19H19N5O3S/c1-3-9-28(26,27)23-18-6-4-5-17(15(18)11-20)22-13-7-8-16-14(10-13)19(25)24(2)12-21-16/h4-8,10,12,22-23H,3,9H2,1-2H3

> <PUBCHEM_IUPAC_INCHIKEY>
VBLJFIYCXZTIPN-UHFFFAOYSA-N

> <PUBCHEM_XLOGP3_AA>
2.6

> <PUBCHEM_EXACT_MASS>
397.121

> <PUBCHEM_MOLECULAR_FORMULA>
C19H19N5O3S

> <PUBCHEM_MOLECULAR_WEIGHT>
397.453

> <PUBCHEM_OPENEYE_CAN_SMILES>
CCCS(=O)(=O)NC1=CC=CC(=C1C#N)NC2=CC3=C(C=C2)N=CN(C3=O)C

> <PUBCHEM_OPENEYE_ISO_SMILES>
CCCS(=O)(=O)NC1=CC=CC(=C1C#N)NC2=CC3=C(C=C2)N=CN(C3=O)C

> <PUBCHEM_CACTVS_TPSA>
123

> <PUBCHEM_MONOISOTOPIC_WEIGHT>
397.121

> <PUBCHEM_TOTAL_CHARGE>
0

> <PUBCHEM_HEAVY_ATOM_COUNT>
28

> <PUBCHEM_ATOM_DEF_STEREO_COUNT>
0

> <PUBCHEM_ATOM_UDEF_STEREO_COUNT>
0

> <PUBCHEM_BOND_DEF_STEREO_COUNT>
0

> <PUBCHEM_BOND_UDEF_STEREO_COUNT>
0

> <PUBCHEM_ISOTOPIC_ATOM_COUNT>
0

> <PUBCHEM_COMPONENT_COUNT>
1

> <PUBCHEM_CACTVS_TAUTO_COUNT>
1

> <PUBCHEM_COORDINATE_TYPE>
1
5
255

> <PUBCHEM_BONDANNOTATIONS>
12  14  8
12  19  8
13  14  8
13  21  8
15  17  8
15  22  8
16  17  8
16  18  8
16  24  8
18  23  8
19  25  8
21  25  8
22  23  8
7  24  8
7  26  8
8  18  8
8  26  8

$$$$
11485656
  -OEChem-11021605012D

 46 49  0     0  0  0  0  0  0999 V2000
    5.4641    4.9470    0.0000 F   0  0  0  0  0  0  0  0  0  0  0  0
    4.5981    1.4470    0.0000 O   0  0  0  0  0  0  0  0  0  0  0  0
    8.1424   -4.3577    0.0000 N   0  0  0  0  0  0  0  0  0  0  0  0
    8.7260   -3.5530    0.0000 N   0  0  0  0  0  0  0  0  0  0  0  0
    6.3301    1.4470    0.0000 N   0  0  0  0  0  0  0  0  0  0  0  0
    8.4530   -1.7977    0.0000 N   0  0  0  0  0  0  0  0  0  0  0  0
    5.4641    2.9470    0.0000 N   0  0  0  0  0  0  0  0  0  0  0  0
    7.1962   -3.0530    0.0000 C   0  0  0  0  0  0  0  0  0  0  0  0
    6.3301   -2.5530    0.0000 C   0  0  0  0  0  0  0  0  0  0  0  0
    7.1962   -4.0530    0.0000 C   0  0  0  0  0  0  0  0  0  0  0  0
    6.3301   -1.5530    0.0000 C   0  0  0  0  0  0  0  0  0  0  0  0
    8.1424   -2.7482    0.0000 C   0  0  0  0  0  0  0  0  0  0  0  0
    5.4641   -3.0530    0.0000 C   0  0  0  0  0  0  0  0  0  0  0  0
    6.3301   -4.5530    0.0000 C   0  0  0  0  0  0  0  0  0  0  0  0
    5.4641   -1.0530    0.0000 C   0  0  0  0  0  0  0  0  0  0  0  0
    7.1962   -1.0530    0.0000 C   0  0  0  0  0  0  0  0  0  0  0  0
    5.4641   -4.0530    0.0000 C   0  0  0  0  0  0  0  0  0  0  0  0
    6.3301    0.4470    0.0000 C   0  0  0  0  0  0  0  0  0  0  0  0
    5.4641   -0.0530    0.0000 C   0  0  0  0  0  0  0  0  0  0  0  0
    7.1962   -0.0530    0.0000 C   0  0  0  0  0  0  0  0  0  0  0  0
    4.5981    3.4470    0.0000 C   0  0  0  0  0  0  0  0  0  0  0  0
    5.4641    1.9470    0.0000 C   0  0  0  0  0  0  0  0  0  0  0  0
    2.8660    3.4470    0.0000 C   0  0  0  0  0  0  0  0  0  0  0  0
    3.7320    2.9470    0.0000 C   0  0  0  0  0  0  0  0  0  0  0  0
    4.5981    4.4470    0.0000 C   0  0  0  0  0  0  0  0  0  0  0  0
    2.8660    4.4470    0.0000 C   0  0  0  0  0  0  0  0  0  0  0  0
    3.7320    4.9470    0.0000 C   0  0  0  0  0  0  0  0  0  0  0  0
    2.0000    2.9470    0.0000 C   0  0  0  0  0  0  0  0  0  0  0  0
    4.9272   -2.7430    0.0000 H   0  0  0  0  0  0  0  0  0  0  0  0
    6.3301   -5.1730    0.0000 H   0  0  0  0  0  0  0  0  0  0  0  0
    4.9272   -1.3630    0.0000 H   0  0  0  0  0  0  0  0  0  0  0  0
    7.7331   -1.3630    0.0000 H   0  0  0  0  0  0  0  0  0  0  0  0
    4.9272   -4.3630    0.0000 H   0  0  0  0  0  0  0  0  0  0  0  0
    8.3350   -4.9470    0.0000 H   0  0  0  0  0  0  0  0  0  0  0  0
    4.9272    0.2570    0.0000 H   0  0  0  0  0  0  0  0  0  0  0  0
    7.7331    0.2570    0.0000 H   0  0  0  0  0  0  0  0  0  0  0  0
    6.8671    1.7570    0.0000 H   0  0  0  0  0  0  0  0  0  0  0  0
    9.0597   -1.6699    0.0000 H   0  0  0  0  0  0  0  0  0  0  0  0
    8.0390   -1.3362    0.0000 H   0  0  0  0  0  0  0  0  0  0  0  0
    3.7320    2.3270    0.0000 H   0  0  0  0  0  0  0  0  0  0  0  0
    6.0010    3.2570    0.0000 H   0  0  0  0  0  0  0  0  0  0  0  0
    2.3291    4.7570    0.0000 H   0  0  0  0  0  0  0  0  0  0  0  0
    3.7320    5.5670    0.0000 H   0  0  0  0  0  0  0  0  0  0  0  0
    1.6900    3.4840    0.0000 H   0  0  0  0  0  0  0  0  0  0  0  0
    1.4631    2.6370    0.0000 H   0  0  0  0  0  0  0  0  0  0  0  0
    2.3100    2.4101    0.0000 H   0  0  0  0  0  0  0  0  0  0  0  0
  1 25  1  0  0  0  0
  2 22  2  0  0  0  0
  3  4  1  0  0  0  0
  3 10  1  0  0  0  0
  3 34  1  0  0  0  0
  4 12  2  0  0  0  0
  5 18  1  0  0  0  0
  5 22  1  0  0  0  0
  5 37  1  0  0  0  0
  6 12  1  0  0  0  0
  6 38  1  0  0  0  0
  6 39  1  0  0  0  0
  7 21  1  0  0  0  0
  7 22  1  0  0  0  0
  7 41  1  0  0  0  0
  8  9  2  0  0  0  0
  8 10  1  0  0  0  0
  8 12  1  0  0  0  0
  9 11  1  0  0  0  0
  9 13  1  0  0  0  0
 10 14  2  0  0  0  0
 11 15  2  0  0  0  0
 11 16  1  0  0  0  0
 13 17  2  0  0  0  0
 13 29  1  0  0  0  0
 14 17  1  0  0  0  0
 14 30  1  0  0  0  0
 15 19  1  0  0  0  0
 15 31  1  0  0  0  0
 16 20  2  0  0  0  0
 16 32  1  0  0  0  0
 17 33  1  0  0  0  0
 18 19  2  0  0  0  0
 18 20  1  0  0  0  0
 19 35  1  0  0  0  0
 20 36  1  0  0  0  0
 21 24  1  0  0  0  0
 21 25  2  0  0  0  0
 23 24  2  0  0  0  0
 23 26  1  0  0  0  0
 23 28  1  0  0  0  0
 24 40  1  0  0  0  0
 25 27  1  0  0  0  0
 26 27  2  0  0  0  0
 26 42  1  0  0  0  0
 27 43  1  0  0  0  0
 28 44  1  0  0  0  0
 28 45  1  0  0  0  0
 28 46  1  0  0  0  0
M  END
> <PUBCHEM_COMPOUND_CID>
11485656

> <PUBCHEM_COMPOUND_CANONICALIZED>
1

> <PUBCHEM_CACTVS_COMPLEXITY>
541

> <PUBCHEM_CACTVS_HBOND_ACCEPTOR>
4

> <PUBCHEM_CACTVS_HBOND_DONOR>
4

> <PUBCHEM_CACTVS_ROTATABLE_BOND>
3

> <PUBCHEM_CACTVS_SUBSKEYS>
AAADceB7oQAAAAAAAAAAAAAAAAAAAWAAAAAwYMAAAAAAAFgB9AAAHwAYAAAADAiBHggz8PLjAACqAyZicACSBAIhAgAcuSAwZJiIIKLA0dGEpAh4nAJIyCcQgMAOiAAAQAASAAAQAACAACQAAAAAAAAAAA==

> <PUBCHEM_IUPAC_OPENEYE_NAME>
1-[4-(3-amino-1H-indazol-4-yl)phenyl]-3-(2-fluoro-5-methyl-phenyl)urea

> <PUBCHEM_IUPAC_CAS_NAME>
1-[4-(3-amino-1H-indazol-4-yl)phenyl]-3-(2-fluoro-5-methylphenyl)urea

> <PUBCHEM_IUPAC_NAME>
1-[4-(3-amino-1H-indazol-4-yl)phenyl]-3-(2-fluoro-5-methylphenyl)urea

> <PUBCHEM_IUPAC_SYSTEMATIC_NAME>
1-[4-(3-azanyl-1H-indazol-4-yl)phenyl]-3-(2-fluoranyl-5-methyl-phenyl)urea

> <PUBCHEM_IUPAC_TRADITIONAL_NAME>
1-[4-(3-amino-1H-indazol-4-yl)phenyl]-3-(2-fluoro-5-methyl-phenyl)urea

> <PUBCHEM_IUPAC_INCHI>
InChI=1S/C21H18FN5O/c1-12-5-10-16(22)18(11-12)25-21(28)24-14-8-6-13(7-9-14)15-3-2-4-17-19(15)20(23)27-26-17/h2-11H,1H3,(H3,23,26,27)(H2,24,25,28)

> <PUBCHEM_IUPAC_INCHIKEY>
MPVGZUGXCQEXTM-UHFFFAOYSA-N

> <PUBCHEM_XLOGP3_AA>
3.9

> <PUBCHEM_EXACT_MASS>
375.15

> <PUBCHEM_MOLECULAR_FORMULA>
C21H18FN5O

> <PUBCHEM_MOLECULAR_WEIGHT>
375.407

> <PUBCHEM_OPENEYE_CAN_SMILES>
CC1=CC(=C(C=C1)F)NC(=O)NC2=CC=C(C=C2)C3=C4C(=CC=C3)NN=C4N

> <PUBCHEM_OPENEYE_ISO_SMILES>
CC1=CC(=C(C=C1)F)NC(=O)NC2=CC=C(C=C2)C3=C4C(=CC=C3)NN=C4N

> <PUBCHEM_CACTVS_TPSA>
95.8

> <PUBCHEM_MONOISOTOPIC_WEIGHT>
375.15

> <PUBCHEM_TOTAL_CHARGE>
0

> <PUBCHEM_HEAVY_ATOM_COUNT>
28

> <PUBCHEM_ATOM_DEF_STEREO_COUNT>
0

> <PUBCHEM_ATOM_UDEF_STEREO_COUNT>
0

> <PUBCHEM_BOND_DEF_STEREO_COUNT>
0

> <PUBCHEM_BOND_UDEF_STEREO_COUNT>
0

> <PUBCHEM_ISOTOPIC_ATOM_COUNT>
0

> <PUBCHEM_COMPONENT_COUNT>
1

> <PUBCHEM_CACTVS_TAUTO_COUNT>
124

> <PUBCHEM_COORDINATE_TYPE>
1
5
255

> <PUBCHEM_BONDANNOTATIONS>
10  14  8
11  15  8
11  16  8
13  17  8
14  17  8
15  19  8
16  20  8
18  19  8
18  20  8
21  24  8
21  25  8
23  24  8
23  26  8
25  27  8
26  27  8
3  10  8
3  4  8
4  12  8
8  10  8
8  12  8
8  9  8
9  13  8

$$$$
16007391
  -OEChem-11021605012D

 67 70  0     1  0  0  0  0  0999 V2000
    2.0000   -3.1318    0.0000 F   0  0  0  0  0  0  0  0  0  0  0  0
   13.7203    2.7377    0.0000 O   0  0  0  0  0  0  0  0  0  0  0  0
   19.7843    2.2611    0.0000 O   0  0  0  0  0  0  0  0  0  0  0  0
    6.5659   -2.7409    0.0000 O   0  0  0  0  0  0  0  0  0  0  0  0
   17.1843    2.7511    0.0000 N   0  0  3  0  0  0  0  0  0  0  0  0
   10.1901   -0.2864    0.0000 N   0  0  0  0  0  0  0  0  0  0  0  0
   10.1901    2.7136    0.0000 N   0  0  0  0  0  0  0  0  0  0  0  0
    8.2414   -1.9889    0.0000 N   0  0  0  0  0  0  0  0  0  0  0  0
    9.3241    1.2136    0.0000 N   0  0  0  0  0  0  0  0  0  0  0  0
    9.2196   -1.7810    0.0000 N   0  0  0  0  0  0  0  0  0  0  0  0
    5.1646   -1.7228    0.0000 N   0  0  0  0  0  0  0  0  0  0  0  0
   16.3203    2.2477    0.0000 C   0  0  0  0  0  0  0  0  0  0  0  0
   15.4523    2.7444    0.0000 C   0  0  0  0  0  0  0  0  0  0  0  0
   18.0523    2.2544    0.0000 C   0  0  0  0  0  0  0  0  0  0  0  0
   17.1805    3.7510    0.0000 C   0  0  0  0  0  0  0  0  0  0  0  0
   14.5882    2.2410    0.0000 C   0  0  0  0  0  0  0  0  0  0  0  0
   18.9164    2.7577    0.0000 C   0  0  0  0  0  0  0  0  0  0  0  0
   18.0446    4.2544    0.0000 C   0  0  0  0  0  0  0  0  0  0  0  0
   12.8562    2.2344    0.0000 C   0  0  0  0  0  0  0  0  0  0  0  0
   11.0562    1.2136    0.0000 C   0  0  0  0  0  0  0  0  0  0  0  0
   11.0562    2.2136    0.0000 C   0  0  0  0  0  0  0  0  0  0  0  0
   11.9501    2.7482    0.0000 C   0  0  0  0  0  0  0  0  0  0  0  0
   12.8562    1.1927    0.0000 C   0  0  0  0  0  0  0  0  0  0  0  0
   11.9501    0.6789    0.0000 C   0  0  0  0  0  0  0  0  0  0  0  0
   10.1901    0.7136    0.0000 C   0  0  0  0  0  0  0  0  0  0  0  0
    7.7414   -1.1228    0.0000 C   0  0  0  0  0  0  0  0  0  0  0  0
    9.3241   -0.7864    0.0000 C   0  0  0  0  0  0  0  0  0  0  0  0
    6.7469   -1.0183    0.0000 C   0  0  0  0  0  0  0  0  0  0  0  0
    8.4106   -0.3797    0.0000 C   0  0  0  0  0  0  0  0  0  0  0  0
    9.3241    2.2136    0.0000 C   0  0  0  0  0  0  0  0  0  0  0  0
    6.1591   -1.8273    0.0000 C   0  0  0  0  0  0  0  0  0  0  0  0
    4.5768   -2.5318    0.0000 C   0  0  0  0  0  0  0  0  0  0  0  0
    3.5823   -2.4273    0.0000 C   0  0  0  0  0  0  0  0  0  0  0  0
    4.9836   -3.4454    0.0000 C   0  0  0  0  0  0  0  0  0  0  0  0
    2.9945   -3.2363    0.0000 C   0  0  0  0  0  0  0  0  0  0  0  0
    4.3958   -4.2544    0.0000 C   0  0  0  0  0  0  0  0  0  0  0  0
    3.4013   -4.1499    0.0000 C   0  0  0  0  0  0  0  0  0  0  0  0
   15.9236    1.7712    0.0000 H   0  0  0  0  0  0  0  0  0  0  0  0
   16.7206    1.7743    0.0000 H   0  0  0  0  0  0  0  0  0  0  0  0
   15.8490    3.2209    0.0000 H   0  0  0  0  0  0  0  0  0  0  0  0
   15.0520    3.2178    0.0000 H   0  0  0  0  0  0  0  0  0  0  0  0
   17.6556    1.7779    0.0000 H   0  0  0  0  0  0  0  0  0  0  0  0
   18.4527    1.7810    0.0000 H   0  0  0  0  0  0  0  0  0  0  0  0
   16.9662    4.3328    0.0000 H   0  0  0  0  0  0  0  0  0  0  0  0
   16.5703    3.6410    0.0000 H   0  0  0  0  0  0  0  0  0  0  0  0
   14.1915    1.7646    0.0000 H   0  0  0  0  0  0  0  0  0  0  0  0
   14.9886    1.7676    0.0000 H   0  0  0  0  0  0  0  0  0  0  0  0
   19.3131    3.2342    0.0000 H   0  0  0  0  0  0  0  0  0  0  0  0
   18.5160    3.2312    0.0000 H   0  0  0  0  0  0  0  0  0  0  0  0
   18.3567    3.7186    0.0000 H   0  0  0  0  0  0  0  0  0  0  0  0
   18.5803    4.5665    0.0000 H   0  0  0  0  0  0  0  0  0  0  0  0
   17.7325    4.7901    0.0000 H   0  0  0  0  0  0  0  0  0  0  0  0
   11.9429    3.3682    0.0000 H   0  0  0  0  0  0  0  0  0  0  0  0
   13.3919    0.8807    0.0000 H   0  0  0  0  0  0  0  0  0  0  0  0
   11.9429    0.0589    0.0000 H   0  0  0  0  0  0  0  0  0  0  0  0
   20.3201    2.5732    0.0000 H   0  0  0  0  0  0  0  0  0  0  0  0
   10.7271   -0.5964    0.0000 H   0  0  0  0  0  0  0  0  0  0  0  0
    6.9178   -0.4223    0.0000 H   0  0  0  0  0  0  0  0  0  0  0  0
    6.1897   -0.7465    0.0000 H   0  0  0  0  0  0  0  0  0  0  0  0
    8.2817    0.2267    0.0000 H   0  0  0  0  0  0  0  0  0  0  0  0
    7.9893   -2.5553    0.0000 H   0  0  0  0  0  0  0  0  0  0  0  0
    8.7872    2.5236    0.0000 H   0  0  0  0  0  0  0  0  0  0  0  0
    4.9124   -1.1564    0.0000 H   0  0  0  0  0  0  0  0  0  0  0  0
    3.3301   -1.8609    0.0000 H   0  0  0  0  0  0  0  0  0  0  0  0
    5.6002   -3.5102    0.0000 H   0  0  0  0  0  0  0  0  0  0  0  0
    4.6480   -4.8208    0.0000 H   0  0  0  0  0  0  0  0  0  0  0  0
    3.0368   -4.6514    0.0000 H   0  0  0  0  0  0  0  0  0  0  0  0
  1 35  1  0  0  0  0
  2 16  1  0  0  0  0
  2 19  1  0  0  0  0
  3 17  1  0  0  0  0
  3 56  1  0  0  0  0
  4 31  2  0  0  0  0
  5 12  1  0  0  0  0
  5 14  1  0  0  0  0
  5 15  1  0  0  0  0
  6 25  1  0  0  0  0
  6 27  1  0  0  0  0
  6 57  1  0  0  0  0
  7 21  1  0  0  0  0
  7 30  2  0  0  0  0
  8 10  1  0  0  0  0
  8 26  1  0  0  0  0
  8 61  1  0  0  0  0
  9 25  2  0  0  0  0
  9 30  1  0  0  0  0
 10 27  2  0  0  0  0
 11 31  1  0  0  0  0
 11 32  1  0  0  0  0
 11 63  1  0  0  0  0
 12 13  1  0  0  0  0
 12 38  1  0  0  0  0
 12 39  1  0  0  0  0
 13 16  1  0  0  0  0
 13 40  1  0  0  0  0
 13 41  1  0  0  0  0
 14 17  1  0  0  0  0
 14 42  1  0  0  0  0
 14 43  1  0  0  0  0
 15 18  1  0  0  0  0
 15 44  1  0  0  0  0
 15 45  1  0  0  0  0
 16 46  1  0  0  0  0
 16 47  1  0  0  0  0
 17 48  1  0  0  0  0
 17 49  1  0  0  0  0
 18 50  1  0  0  0  0
 18 51  1  0  0  0  0
 18 52  1  0  0  0  0
 19 22  2  0  0  0  0
 19 23  1  0  0  0  0
 20 21  2  0  0  0  0
 20 24  1  0  0  0  0
 20 25  1  0  0  0  0
 21 22  1  0  0  0  0
 22 53  1  0  0  0  0
 23 24  2  0  0  0  0
 23 54  1  0  0  0  0
 24 55  1  0  0  0  0
 26 28  1  0  0  0  0
 26 29  2  0  0  0  0
 27 29  1  0  0  0  0
 28 31  1  0  0  0  0
 28 58  1  0  0  0  0
 28 59  1  0  0  0  0
 29 60  1  0  0  0  0
 30 62  1  0  0  0  0
 32 33  2  0  0  0  0
 32 34  1  0  0  0  0
 33 35  1  0  0  0  0
 33 64  1  0  0  0  0
 34 36  2  0  0  0  0
 34 65  1  0  0  0  0
 35 37  2  0  0  0  0
 36 37  1  0  0  0  0
 36 66  1  0  0  0  0
 37 67  1  0  0  0  0
M  END
> <PUBCHEM_COMPOUND_CID>
16007391

> <PUBCHEM_COMPOUND_CANONICALIZED>
1

> <PUBCHEM_CACTVS_COMPLEXITY>
693

> <PUBCHEM_CACTVS_HBOND_ACCEPTOR>
9

> <PUBCHEM_CACTVS_HBOND_DONOR>
4

> <PUBCHEM_CACTVS_ROTATABLE_BOND>
13

> <PUBCHEM_CACTVS_SUBSKEYS>
AAADceB7sQAAAAAAAAAAAAAAAAAAAWAAAAA8YIAAAAAAAACx/AAAHwAYCAAADAzhng439vfrFgCqAydzdACSjCsxIqAd+SE+bJiOPvrE/duGvCj+3BvY6CeY0QMOIAAAAgACAABAAAAEAAQAAAAAAAAAAA==

> <PUBCHEM_IUPAC_OPENEYE_NAME>
2-[3-[[7-[3-[ethyl(2-hydroxyethyl)amino]propoxy]quinazolin-4-yl]amino]-1H-pyrazol-5-yl]-N-(3-fluorophenyl)acetamide

> <PUBCHEM_IUPAC_CAS_NAME>
2-[3-[[7-[3-[ethyl(2-hydroxyethyl)amino]propoxy]-4-quinazolinyl]amino]-1H-pyrazol-5-yl]-N-(3-fluorophenyl)acetamide

> <PUBCHEM_IUPAC_NAME>
2-[3-[[7-[3-[ethyl(2-hydroxyethyl)amino]propoxy]quinazolin-4-yl]amino]-1H-pyrazol-5-yl]-N-(3-fluorophenyl)acetamide

> <PUBCHEM_IUPAC_SYSTEMATIC_NAME>
2-[3-[[7-[3-[ethyl(2-hydroxyethyl)amino]propoxy]quinazolin-4-yl]amino]-1H-pyrazol-5-yl]-N-(3-fluorophenyl)ethanamide

> <PUBCHEM_IUPAC_TRADITIONAL_NAME>
2-[3-[[7-[3-[ethyl(2-hydroxyethyl)amino]propoxy]quinazolin-4-yl]amino]-1H-pyrazol-5-yl]-N-(3-fluorophenyl)acetamide

> <PUBCHEM_IUPAC_INCHI>
InChI=1S/C26H30FN7O3/c1-2-34(10-11-35)9-4-12-37-21-7-8-22-23(16-21)28-17-29-26(22)31-24-14-20(32-33-24)15-25(36)30-19-6-3-5-18(27)13-19/h3,5-8,13-14,16-17,35H,2,4,9-12,15H2,1H3,(H,30,36)(H2,28,29,31,32,33)

> <PUBCHEM_IUPAC_INCHIKEY>
QYZOGCMHVIGURT-UHFFFAOYSA-N

> <PUBCHEM_XLOGP3_AA>
3

> <PUBCHEM_EXACT_MASS>
507.239

> <PUBCHEM_MOLECULAR_FORMULA>
C26H30FN7O3

> <PUBCHEM_MOLECULAR_WEIGHT>
507.57

> <PUBCHEM_OPENEYE_CAN_SMILES>
CCN(CCCOC1=CC2=C(C=C1)C(=NC=N2)NC3=NNC(=C3)CC(=O)NC4=CC(=CC=C4)F)CCO

> <PUBCHEM_OPENEYE_ISO_SMILES>
CCN(CCCOC1=CC2=C(C=C1)C(=NC=N2)NC3=NNC(=C3)CC(=O)NC4=CC(=CC=C4)F)CCO

> <PUBCHEM_CACTVS_TPSA>
128

> <PUBCHEM_MONOISOTOPIC_WEIGHT>
507.239

> <PUBCHEM_TOTAL_CHARGE>
0

> <PUBCHEM_HEAVY_ATOM_COUNT>
37

> <PUBCHEM_ATOM_DEF_STEREO_COUNT>
0

> <PUBCHEM_ATOM_UDEF_STEREO_COUNT>
0

> <PUBCHEM_BOND_DEF_STEREO_COUNT>
0

> <PUBCHEM_BOND_UDEF_STEREO_COUNT>
0

> <PUBCHEM_ISOTOPIC_ATOM_COUNT>
0

> <PUBCHEM_COMPONENT_COUNT>
1

> <PUBCHEM_CACTVS_TAUTO_COUNT>
47

> <PUBCHEM_COORDINATE_TYPE>
1
5
255

> <PUBCHEM_BONDANNOTATIONS>
10  27  8
19  22  8
19  23  8
20  21  8
20  24  8
20  25  8
21  22  8
23  24  8
26  29  8
27  29  8
32  33  8
32  34  8
33  35  8
34  36  8
35  37  8
36  37  8
7  21  8
7  30  8
8  10  8
8  26  8
9  25  8
9  30  8

$$$$
3025986
  -OEChem-11021605012D

 49 51  0     0  0  0  0  0  0999 V2000
    3.9598   -0.6568    0.0000 S   0  0  0  0  0  0  0  0  0  0  0  0
    3.6810    1.1032    0.0000 S   0  0  0  0  0  0  0  0  0  0  0  0
    3.0368   -2.2446    0.0000 O   0  0  0  0  0  0  0  0  0  0  0  0
    3.8090    3.7768    0.0000 O   0  0  0  0  0  0  0  0  0  0  0  0
    3.9028   -5.7446    0.0000 N   0  0  0  0  0  0  0  0  0  0  0  0
    4.7688   -2.2446    0.0000 N   0  0  0  0  0  0  0  0  0  0  0  0
    2.5000    2.8258    0.0000 N   0  0  0  0  0  0  0  0  0  0  0  0
    5.5778   -0.6568    0.0000 N   0  0  0  0  0  0  0  0  0  0  0  0
    3.9028   -3.7446    0.0000 C   0  0  0  0  0  0  0  0  0  0  0  0
    3.0368   -4.2446    0.0000 C   0  0  0  0  0  0  0  0  0  0  0  0
    4.7688   -4.2446    0.0000 C   0  0  0  0  0  0  0  0  0  0  0  0
    3.0368   -5.2446    0.0000 C   0  0  0  0  0  0  0  0  0  0  0  0
    4.7688   -5.2446    0.0000 C   0  0  0  0  0  0  0  0  0  0  0  0
    3.9028   -2.7446    0.0000 C   0  0  0  0  0  0  0  0  0  0  0  0
    3.0000    5.3646    0.0000 C   0  0  0  0  0  0  0  0  0  0  0  0
    3.0000    4.3646    0.0000 C   0  0  0  0  0  0  0  0  0  0  0  0
    3.0000    6.3646    0.0000 C   0  0  0  0  0  0  0  0  0  0  0  0
    2.0000    5.3646    0.0000 C   0  0  0  0  0  0  0  0  0  0  0  0
    4.0000    5.3646    0.0000 C   0  0  0  0  0  0  0  0  0  0  0  0
    4.7688   -1.2446    0.0000 C   0  0  0  0  0  0  0  0  0  0  0  0
    2.1910    3.7768    0.0000 C   0  0  0  0  0  0  0  0  0  0  0  0
    3.5000    2.8258    0.0000 C   0  0  0  0  0  0  0  0  0  0  0  0
    4.0878    2.0168    0.0000 C   0  0  0  0  0  0  0  0  0  0  0  0
    4.2688    0.2942    0.0000 C   0  0  0  0  0  0  0  0  0  0  0  0
    5.2688    0.2942    0.0000 C   0  0  0  0  0  0  0  0  0  0  0  0
    4.4397   -3.4346    0.0000 H   0  0  0  0  0  0  0  0  0  0  0  0
    2.8247   -3.6620    0.0000 H   0  0  0  0  0  0  0  0  0  0  0  0
    2.4262   -4.3523    0.0000 H   0  0  0  0  0  0  0  0  0  0  0  0
    5.3794   -4.3523    0.0000 H   0  0  0  0  0  0  0  0  0  0  0  0
    4.9809   -3.6620    0.0000 H   0  0  0  0  0  0  0  0  0  0  0  0
    2.4262   -5.1370    0.0000 H   0  0  0  0  0  0  0  0  0  0  0  0
    2.8247   -5.8272    0.0000 H   0  0  0  0  0  0  0  0  0  0  0  0
    4.9809   -5.8272    0.0000 H   0  0  0  0  0  0  0  0  0  0  0  0
    5.3794   -5.1370    0.0000 H   0  0  0  0  0  0  0  0  0  0  0  0
    3.9028   -6.3646    0.0000 H   0  0  0  0  0  0  0  0  0  0  0  0
    5.3058   -2.5546    0.0000 H   0  0  0  0  0  0  0  0  0  0  0  0
    3.6200    6.3646    0.0000 H   0  0  0  0  0  0  0  0  0  0  0  0
    3.0000    6.9846    0.0000 H   0  0  0  0  0  0  0  0  0  0  0  0
    2.3800    6.3646    0.0000 H   0  0  0  0  0  0  0  0  0  0  0  0
    2.0000    5.9846    0.0000 H   0  0  0  0  0  0  0  0  0  0  0  0
    1.3800    5.3646    0.0000 H   0  0  0  0  0  0  0  0  0  0  0  0
    2.0000    4.7446    0.0000 H   0  0  0  0  0  0  0  0  0  0  0  0
    4.0000    4.7446    0.0000 H   0  0  0  0  0  0  0  0  0  0  0  0
    4.6200    5.3646    0.0000 H   0  0  0  0  0  0  0  0  0  0  0  0
    4.0000    5.9846    0.0000 H   0  0  0  0  0  0  0  0  0  0  0  0
    1.6013    3.9684    0.0000 H   0  0  0  0  0  0  0  0  0  0  0  0
    4.6018    1.6701    0.0000 H   0  0  0  0  0  0  0  0  0  0  0  0
    4.5185    2.4628    0.0000 H   0  0  0  0  0  0  0  0  0  0  0  0
    5.6333    0.7958    0.0000 H   0  0  0  0  0  0  0  0  0  0  0  0
  1 20  1  0  0  0  0
  1 24  1  0  0  0  0
  2 23  1  0  0  0  0
  2 24  1  0  0  0  0
  3 14  2  0  0  0  0
  4 16  1  0  0  0  0
  4 22  1  0  0  0  0
  5 12  1  0  0  0  0
  5 13  1  0  0  0  0
  5 35  1  0  0  0  0
  6 14  1  0  0  0  0
  6 20  1  0  0  0  0
  6 36  1  0  0  0  0
  7 21  1  0  0  0  0
  7 22  2  0  0  0  0
  8 20  2  0  0  0  0
  8 25  1  0  0  0  0
  9 10  1  0  0  0  0
  9 11  1  0  0  0  0
  9 14  1  0  0  0  0
  9 26  1  0  0  0  0
 10 12  1  0  0  0  0
 10 27  1  0  0  0  0
 10 28  1  0  0  0  0
 11 13  1  0  0  0  0
 11 29  1  0  0  0  0
 11 30  1  0  0  0  0
 12 31  1  0  0  0  0
 12 32  1  0  0  0  0
 13 33  1  0  0  0  0
 13 34  1  0  0  0  0
 15 16  1  0  0  0  0
 15 17  1  0  0  0  0
 15 18  1  0  0  0  0
 15 19  1  0  0  0  0
 16 21  2  0  0  0  0
 17 37  1  0  0  0  0
 17 38  1  0  0  0  0
 17 39  1  0  0  0  0
 18 40  1  0  0  0  0
 18 41  1  0  0  0  0
 18 42  1  0  0  0  0
 19 43  1  0  0  0  0
 19 44  1  0  0  0  0
 19 45  1  0  0  0  0
 21 46  1  0  0  0  0
 22 23  1  0  0  0  0
 23 47  1  0  0  0  0
 23 48  1  0  0  0  0
 24 25  2  0  0  0  0
 25 49  1  0  0  0  0
M  END
> <PUBCHEM_COMPOUND_CID>
3025986

> <PUBCHEM_COMPOUND_CANONICALIZED>
1

> <PUBCHEM_CACTVS_COMPLEXITY>
454

> <PUBCHEM_CACTVS_HBOND_ACCEPTOR>
7

> <PUBCHEM_CACTVS_HBOND_DONOR>
2

> <PUBCHEM_CACTVS_ROTATABLE_BOND>
6

> <PUBCHEM_CACTVS_SUBSKEYS>
AAADceB7sABgAAAAAAAAAAAAAAAAAWLAAAAsAAAAAAAAAAAB4AAAHgQQAAAADwTF0gSvlRLIFEisAJF3dAQA+al7SDlBUI27QAiGIBJAiCAPCACIFwLwQCAUAAALAAAAAAAAAAAAAAAAAAAAAAAAAAAAAA==

> <PUBCHEM_IUPAC_OPENEYE_NAME>
N-[5-[(5-tert-butyloxazol-2-yl)methylsulfanyl]thiazol-2-yl]piperidine-4-carboxamide

> <PUBCHEM_IUPAC_CAS_NAME>
N-[5-[(5-tert-butyl-2-oxazolyl)methylthio]-2-thiazolyl]-4-piperidinecarboxamide

> <PUBCHEM_IUPAC_NAME>
N-[5-[(5-tert-butyl-1,3-oxazol-2-yl)methylsulfanyl]-1,3-thiazol-2-yl]piperidine-4-carboxamide

> <PUBCHEM_IUPAC_SYSTEMATIC_NAME>
N-[5-[(5-tert-butyl-1,3-oxazol-2-yl)methylsulfanyl]-1,3-thiazol-2-yl]piperidine-4-carboxamide

> <PUBCHEM_IUPAC_TRADITIONAL_NAME>
N-[5-[(5-tert-butyloxazol-2-yl)methylthio]thiazol-2-yl]isonipecotamide

> <PUBCHEM_IUPAC_INCHI>
InChI=1S/C17H24N4O2S2/c1-17(2,3)12-8-19-13(23-12)10-24-14-9-20-16(25-14)21-15(22)11-4-6-18-7-5-11/h8-9,11,18H,4-7,10H2,1-3H3,(H,20,21,22)

> <PUBCHEM_IUPAC_INCHIKEY>
OUSFTKFNBAZUKL-UHFFFAOYSA-N

> <PUBCHEM_XLOGP3_AA>
3

> <PUBCHEM_EXACT_MASS>
380.134

> <PUBCHEM_MOLECULAR_FORMULA>
C17H24N4O2S2

> <PUBCHEM_MOLECULAR_WEIGHT>
380.525

> <PUBCHEM_OPENEYE_CAN_SMILES>
CC(C)(C)C1=CN=C(O1)CSC2=CN=C(S2)NC(=O)C3CCNCC3

> <PUBCHEM_OPENEYE_ISO_SMILES>
CC(C)(C)C1=CN=C(O1)CSC2=CN=C(S2)NC(=O)C3CCNCC3

> <PUBCHEM_CACTVS_TPSA>
134

> <PUBCHEM_MONOISOTOPIC_WEIGHT>
380.134

> <PUBCHEM_TOTAL_CHARGE>
0

> <PUBCHEM_HEAVY_ATOM_COUNT>
25

> <PUBCHEM_ATOM_DEF_STEREO_COUNT>
0

> <PUBCHEM_ATOM_UDEF_STEREO_COUNT>
0

> <PUBCHEM_BOND_DEF_STEREO_COUNT>
0

> <PUBCHEM_BOND_UDEF_STEREO_COUNT>
0

> <PUBCHEM_ISOTOPIC_ATOM_COUNT>
0

> <PUBCHEM_COMPONENT_COUNT>
1

> <PUBCHEM_CACTVS_TAUTO_COUNT>
10

> <PUBCHEM_COORDINATE_TYPE>
1
5
255

> <PUBCHEM_BONDANNOTATIONS>
1  20  8
1  24  8
16  21  8
24  25  8
4  16  8
4  22  8
7  21  8
7  22  8
8  20  8
8  25  8

$$$$
10113978
  -OEChem-11021605012D

 54 57  0     0  0  0  0  0  0999 V2000
    3.7320    2.8450    0.0000 S   0  0  0  0  0  0  0  0  0  0  0  0
    4.7320    2.8450    0.0000 O   0  0  0  0  0  0  0  0  0  0  0  0
    2.7320    2.8450    0.0000 O   0  0  0  0  0  0  0  0  0  0  0  0
   11.3241   -2.1550    0.0000 N   0  0  0  0  0  0  0  0  0  0  0  0
    7.1962   -3.1550    0.0000 N   0  0  0  0  0  0  0  0  0  0  0  0
   10.7404   -2.9597    0.0000 N   0  0  0  0  0  0  0  0  0  0  0  0
    5.4641   -0.1550    0.0000 N   0  0  0  0  0  0  0  0  0  0  0  0
    6.3301   -1.6550    0.0000 N   0  0  0  0  0  0  0  0  0  0  0  0
    4.5981   -1.6550    0.0000 N   0  0  0  0  0  0  0  0  0  0  0  0
    3.7320    3.8450    0.0000 N   0  0  0  0  0  0  0  0  0  0  0  0
    9.7942   -1.6550    0.0000 C   0  0  0  0  0  0  0  0  0  0  0  0
    9.7942   -2.6550    0.0000 C   0  0  0  0  0  0  0  0  0  0  0  0
   10.7404   -1.3503    0.0000 C   0  0  0  0  0  0  0  0  0  0  0  0
    8.0622   -2.6550    0.0000 C   0  0  0  0  0  0  0  0  0  0  0  0
    8.9282   -3.1550    0.0000 C   0  0  0  0  0  0  0  0  0  0  0  0
    8.9282   -1.1550    0.0000 C   0  0  0  0  0  0  0  0  0  0  0  0
    8.0622   -1.6550    0.0000 C   0  0  0  0  0  0  0  0  0  0  0  0
   11.0511   -0.3997    0.0000 C   0  0  0  0  0  0  0  0  0  0  0  0
    6.3301   -2.6550    0.0000 C   0  0  0  0  0  0  0  0  0  0  0  0
    3.7320    1.8450    0.0000 C   0  0  0  0  0  0  0  0  0  0  0  0
   12.3241   -2.1550    0.0000 C   0  0  0  0  0  0  0  0  0  0  0  0
    2.8660    1.3450    0.0000 C   0  0  0  0  0  0  0  0  0  0  0  0
    4.5981    0.3450    0.0000 C   0  0  0  0  0  0  0  0  0  0  0  0
    7.1962   -4.1550    0.0000 C   0  0  0  0  0  0  0  0  0  0  0  0
    4.5981    1.3450    0.0000 C   0  0  0  0  0  0  0  0  0  0  0  0
    2.8660    0.3450    0.0000 C   0  0  0  0  0  0  0  0  0  0  0  0
    3.7320   -0.1550    0.0000 C   0  0  0  0  0  0  0  0  0  0  0  0
    5.4641   -1.1550    0.0000 C   0  0  0  0  0  0  0  0  0  0  0  0
    5.4641   -3.1550    0.0000 C   0  0  0  0  0  0  0  0  0  0  0  0
    2.0000    1.8450    0.0000 C   0  0  0  0  0  0  0  0  0  0  0  0
    4.5981   -2.6550    0.0000 C   0  0  0  0  0  0  0  0  0  0  0  0
    8.9282   -3.7750    0.0000 H   0  0  0  0  0  0  0  0  0  0  0  0
    8.9282   -0.5350    0.0000 H   0  0  0  0  0  0  0  0  0  0  0  0
    7.5252   -1.3450    0.0000 H   0  0  0  0  0  0  0  0  0  0  0  0
   11.6404   -0.5924    0.0000 H   0  0  0  0  0  0  0  0  0  0  0  0
   11.2437    0.1896    0.0000 H   0  0  0  0  0  0  0  0  0  0  0  0
   10.4618   -0.2071    0.0000 H   0  0  0  0  0  0  0  0  0  0  0  0
   12.3241   -2.7750    0.0000 H   0  0  0  0  0  0  0  0  0  0  0  0
   12.9441   -2.1550    0.0000 H   0  0  0  0  0  0  0  0  0  0  0  0
   12.3241   -1.5350    0.0000 H   0  0  0  0  0  0  0  0  0  0  0  0
    6.5762   -4.1550    0.0000 H   0  0  0  0  0  0  0  0  0  0  0  0
    7.1962   -4.7750    0.0000 H   0  0  0  0  0  0  0  0  0  0  0  0
    7.8162   -4.1550    0.0000 H   0  0  0  0  0  0  0  0  0  0  0  0
    5.1350    1.6550    0.0000 H   0  0  0  0  0  0  0  0  0  0  0  0
    2.3291    0.0350    0.0000 H   0  0  0  0  0  0  0  0  0  0  0  0
    3.7320   -0.7750    0.0000 H   0  0  0  0  0  0  0  0  0  0  0  0
    6.0010    0.1550    0.0000 H   0  0  0  0  0  0  0  0  0  0  0  0
    5.4641   -3.7750    0.0000 H   0  0  0  0  0  0  0  0  0  0  0  0
    2.3100    2.3819    0.0000 H   0  0  0  0  0  0  0  0  0  0  0  0
    1.4631    2.1550    0.0000 H   0  0  0  0  0  0  0  0  0  0  0  0
    1.6900    1.3081    0.0000 H   0  0  0  0  0  0  0  0  0  0  0  0
    4.0611   -2.9650    0.0000 H   0  0  0  0  0  0  0  0  0  0  0  0
    3.1951    4.1550    0.0000 H   0  0  0  0  0  0  0  0  0  0  0  0
    4.2690    4.1550    0.0000 H   0  0  0  0  0  0  0  0  0  0  0  0
  1  2  2  0  0  0  0
  1  3  2  0  0  0  0
  1 10  1  0  0  0  0
  1 20  1  0  0  0  0
  4  6  1  0  0  0  0
  4 13  1  0  0  0  0
  4 21  1  0  0  0  0
  5 14  1  0  0  0  0
  5 19  1  0  0  0  0
  5 24  1  0  0  0  0
  6 12  2  0  0  0  0
  7 23  1  0  0  0  0
  7 28  1  0  0  0  0
  7 47  1  0  0  0  0
  8 19  2  0  0  0  0
  8 28  1  0  0  0  0
  9 28  2  0  0  0  0
  9 31  1  0  0  0  0
 10 53  1  0  0  0  0
 10 54  1  0  0  0  0
 11 12  1  0  0  0  0
 11 13  2  0  0  0  0
 11 16  1  0  0  0  0
 12 15  1  0  0  0  0
 13 18  1  0  0  0  0
 14 15  2  0  0  0  0
 14 17  1  0  0  0  0
 15 32  1  0  0  0  0
 16 17  2  0  0  0  0
 16 33  1  0  0  0  0
 17 34  1  0  0  0  0
 18 35  1  0  0  0  0
 18 36  1  0  0  0  0
 18 37  1  0  0  0  0
 19 29  1  0  0  0  0
 20 22  2  0  0  0  0
 20 25  1  0  0  0  0
 21 38  1  0  0  0  0
 21 39  1  0  0  0  0
 21 40  1  0  0  0  0
 22 26  1  0  0  0  0
 22 30  1  0  0  0  0
 23 25  2  0  0  0  0
 23 27  1  0  0  0  0
 24 41  1  0  0  0  0
 24 42  1  0  0  0  0
 24 43  1  0  0  0  0
 25 44  1  0  0  0  0
 26 27  2  0  0  0  0
 26 45  1  0  0  0  0
 27 46  1  0  0  0  0
 29 31  2  0  0  0  0
 29 48  1  0  0  0  0
 30 49  1  0  0  0  0
 30 50  1  0  0  0  0
 30 51  1  0  0  0  0
 31 52  1  0  0  0  0
M  END
> <PUBCHEM_COMPOUND_CID>
10113978

> <PUBCHEM_COMPOUND_CANONICALIZED>
1

> <PUBCHEM_CACTVS_COMPLEXITY>
717

> <PUBCHEM_CACTVS_HBOND_ACCEPTOR>
8

> <PUBCHEM_CACTVS_HBOND_DONOR>
2

> <PUBCHEM_CACTVS_ROTATABLE_BOND>
5

> <PUBCHEM_CACTVS_SUBSKEYS>
AAADceB7sABAAAAAAAAAAAAAAAAAAWAAAAA8YIAAAAAAAFgB/AAAHAQYQAAADAjBXgQ/8ffIEAKiAzZnZHDShDkxgqAZ2Dg4ZJiIKOLA2dGEpAxomALIyCcQgIAOCAAAACQGAAAQAAAASAwAAAAAAAAAAA==

> <PUBCHEM_IUPAC_OPENEYE_NAME>
5-[[4-[(2,3-dimethylindazol-6-yl)-methyl-amino]pyrimidin-2-yl]amino]-2-methyl-benzenesulfonamide

> <PUBCHEM_IUPAC_CAS_NAME>
5-[[4-[(2,3-dimethyl-6-indazolyl)-methylamino]-2-pyrimidinyl]amino]-2-methylbenzenesulfonamide

> <PUBCHEM_IUPAC_NAME>
5-[[4-[(2,3-dimethylindazol-6-yl)-methylamino]pyrimidin-2-yl]amino]-2-methylbenzenesulfonamide

> <PUBCHEM_IUPAC_SYSTEMATIC_NAME>
5-[[4-[(2,3-dimethylindazol-6-yl)-methyl-amino]pyrimidin-2-yl]amino]-2-methyl-benzenesulfonamide

> <PUBCHEM_IUPAC_TRADITIONAL_NAME>
5-[[4-[(2,3-dimethylindazol-6-yl)-methyl-amino]pyrimidin-2-yl]amino]-2-methyl-benzenesulfonamide

> <PUBCHEM_IUPAC_INCHI>
InChI=1S/C21H23N7O2S/c1-13-5-6-15(11-19(13)31(22,29)30)24-21-23-10-9-20(25-21)27(3)16-7-8-17-14(2)28(4)26-18(17)12-16/h5-12H,1-4H3,(H2,22,29,30)(H,23,24,25)

> <PUBCHEM_IUPAC_INCHIKEY>
CUIHSIWYWATEQL-UHFFFAOYSA-N

> <PUBCHEM_XLOGP3_AA>
3.1

> <PUBCHEM_EXACT_MASS>
437.163

> <PUBCHEM_MOLECULAR_FORMULA>
C21H23N7O2S

> <PUBCHEM_MOLECULAR_WEIGHT>
437.522

> <PUBCHEM_OPENEYE_CAN_SMILES>
CC1=C(C=C(C=C1)NC2=NC=CC(=N2)N(C)C3=CC4=NN(C(=C4C=C3)C)C)S(=O)(=O)N

> <PUBCHEM_OPENEYE_ISO_SMILES>
CC1=C(C=C(C=C1)NC2=NC=CC(=N2)N(C)C3=CC4=NN(C(=C4C=C3)C)C)S(=O)(=O)N

> <PUBCHEM_CACTVS_TPSA>
127

> <PUBCHEM_MONOISOTOPIC_WEIGHT>
437.163

> <PUBCHEM_TOTAL_CHARGE>
0

> <PUBCHEM_HEAVY_ATOM_COUNT>
31

> <PUBCHEM_ATOM_DEF_STEREO_COUNT>
0

> <PUBCHEM_ATOM_UDEF_STEREO_COUNT>
0

> <PUBCHEM_BOND_DEF_STEREO_COUNT>
0

> <PUBCHEM_BOND_UDEF_STEREO_COUNT>
0

> <PUBCHEM_ISOTOPIC_ATOM_COUNT>
0

> <PUBCHEM_COMPONENT_COUNT>
1

> <PUBCHEM_CACTVS_TAUTO_COUNT>
3

> <PUBCHEM_COORDINATE_TYPE>
1
5
255

> <PUBCHEM_BONDANNOTATIONS>
11  12  8
11  13  8
11  16  8
12  15  8
14  15  8
14  17  8
16  17  8
19  29  8
20  22  8
20  25  8
22  26  8
23  25  8
23  27  8
26  27  8
29  31  8
4  13  8
4  6  8
6  12  8
8  19  8
8  28  8
9  28  8
9  31  8

$$$$
9874913
  -OEChem-11021605012D

 62 65  0     0  0  0  0  0  0999 V2000
   14.9834   -2.0646    0.0000 O   0  0  0  0  0  0  0  0  0  0  0  0
    2.8660    1.0099    0.0000 O   0  0  0  0  0  0  0  0  0  0  0  0
    4.5981    0.0099    0.0000 O   0  0  0  0  0  0  0  0  0  0  0  0
   11.5426   -0.0247    0.0000 N   0  0  0  0  0  0  0  0  0  0  0  0
   12.4603    1.4891    0.0000 N   0  0  0  0  0  0  0  0  0  0  0  0
   11.5542    3.0445    0.0000 N   0  0  0  0  0  0  0  0  0  0  0  0
    5.4641    1.5099    0.0000 N   0  0  0  0  0  0  0  0  0  0  0  0
   17.5871   -1.5947    0.0000 N   0  0  0  0  0  0  0  0  0  0  0  0
   10.6603    1.5099    0.0000 C   0  0  0  0  0  0  0  0  0  0  0  0
   11.5542    0.9752    0.0000 C   0  0  0  0  0  0  0  0  0  0  0  0
   12.4028   -0.5347    0.0000 C   0  0  0  0  0  0  0  0  0  0  0  0
   10.6603    2.5099    0.0000 C   0  0  0  0  0  0  0  0  0  0  0  0
    9.7942    1.0099    0.0000 C   0  0  0  0  0  0  0  0  0  0  0  0
    8.9282    1.5099    0.0000 C   0  0  0  0  0  0  0  0  0  0  0  0
   13.2514   -2.0446    0.0000 C   0  0  0  0  0  0  0  0  0  0  0  0
   12.3913   -1.5346    0.0000 C   0  0  0  0  0  0  0  0  0  0  0  0
   14.1232   -1.5547    0.0000 C   0  0  0  0  0  0  0  0  0  0  0  0
    9.7942    3.0099    0.0000 C   0  0  0  0  0  0  0  0  0  0  0  0
   13.2746   -0.0447    0.0000 C   0  0  0  0  0  0  0  0  0  0  0  0
    8.9282    2.5099    0.0000 C   0  0  0  0  0  0  0  0  0  0  0  0
   14.1348   -0.5547    0.0000 C   0  0  0  0  0  0  0  0  0  0  0  0
    8.0622    1.0099    0.0000 C   0  0  0  0  0  0  0  0  0  0  0  0
   13.2399   -3.0445    0.0000 C   0  0  0  0  0  0  0  0  0  0  0  0
   12.4603    2.5307    0.0000 C   0  0  0  0  0  0  0  0  0  0  0  0
    7.1962    1.5099    0.0000 C   0  0  0  0  0  0  0  0  0  0  0  0
    6.3301    1.0099    0.0000 C   0  0  0  0  0  0  0  0  0  0  0  0
   15.8551   -1.5747    0.0000 C   0  0  0  0  0  0  0  0  0  0  0  0
   15.8667   -0.5748    0.0000 C   0  0  0  0  0  0  0  0  0  0  0  0
   16.7153   -2.0847    0.0000 C   0  0  0  0  0  0  0  0  0  0  0  0
   16.7384   -0.0848    0.0000 C   0  0  0  0  0  0  0  0  0  0  0  0
   17.5986   -0.5948    0.0000 C   0  0  0  0  0  0  0  0  0  0  0  0
    4.5981    1.0099    0.0000 C   0  0  0  0  0  0  0  0  0  0  0  0
    3.7320    1.5099    0.0000 C   0  0  0  0  0  0  0  0  0  0  0  0
   18.4704   -0.1048    0.0000 C   0  0  0  0  0  0  0  0  0  0  0  0
    2.0000    1.5099    0.0000 C   0  0  0  0  0  0  0  0  0  0  0  0
    9.7942    0.3899    0.0000 H   0  0  0  0  0  0  0  0  0  0  0  0
   11.0021   -0.3285    0.0000 H   0  0  0  0  0  0  0  0  0  0  0  0
   11.8508   -1.8384    0.0000 H   0  0  0  0  0  0  0  0  0  0  0  0
    9.7942    3.6299    0.0000 H   0  0  0  0  0  0  0  0  0  0  0  0
   13.2817    0.5752    0.0000 H   0  0  0  0  0  0  0  0  0  0  0  0
    8.3913    2.8199    0.0000 H   0  0  0  0  0  0  0  0  0  0  0  0
   14.6752   -0.2510    0.0000 H   0  0  0  0  0  0  0  0  0  0  0  0
    8.0622    0.3899    0.0000 H   0  0  0  0  0  0  0  0  0  0  0  0
   12.6199   -3.0374    0.0000 H   0  0  0  0  0  0  0  0  0  0  0  0
   13.2327   -3.6645    0.0000 H   0  0  0  0  0  0  0  0  0  0  0  0
   13.8598   -3.0517    0.0000 H   0  0  0  0  0  0  0  0  0  0  0  0
   12.9960    2.8428    0.0000 H   0  0  0  0  0  0  0  0  0  0  0  0
    7.1962    2.1299    0.0000 H   0  0  0  0  0  0  0  0  0  0  0  0
    5.9316    0.5349    0.0000 H   0  0  0  0  0  0  0  0  0  0  0  0
    6.7287    0.5349    0.0000 H   0  0  0  0  0  0  0  0  0  0  0  0
    5.4641    2.1299    0.0000 H   0  0  0  0  0  0  0  0  0  0  0  0
   15.3334   -0.2586    0.0000 H   0  0  0  0  0  0  0  0  0  0  0  0
   16.7081   -2.7046    0.0000 H   0  0  0  0  0  0  0  0  0  0  0  0
   16.7456    0.5352    0.0000 H   0  0  0  0  0  0  0  0  0  0  0  0
    4.1306    1.9848    0.0000 H   0  0  0  0  0  0  0  0  0  0  0  0
    3.3335    1.9848    0.0000 H   0  0  0  0  0  0  0  0  0  0  0  0
   18.7741   -0.6453    0.0000 H   0  0  0  0  0  0  0  0  0  0  0  0
   19.0109    0.1989    0.0000 H   0  0  0  0  0  0  0  0  0  0  0  0
   18.1666    0.4357    0.0000 H   0  0  0  0  0  0  0  0  0  0  0  0
    2.3100    2.0468    0.0000 H   0  0  0  0  0  0  0  0  0  0  0  0
    1.4631    1.8199    0.0000 H   0  0  0  0  0  0  0  0  0  0  0  0
    1.6900    0.9729    0.0000 H   0  0  0  0  0  0  0  0  0  0  0  0
  1 17  1  0  0  0  0
  1 27  1  0  0  0  0
  2 33  1  0  0  0  0
  2 35  1  0  0  0  0
  3 32  2  0  0  0  0
  4 10  1  0  0  0  0
  4 11  1  0  0  0  0
  4 37  1  0  0  0  0
  5 10  2  0  0  0  0
  5 24  1  0  0  0  0
  6 12  1  0  0  0  0
  6 24  2  0  0  0  0
  7 26  1  0  0  0  0
  7 32  1  0  0  0  0
  7 51  1  0  0  0  0
  8 29  1  0  0  0  0
  8 31  2  0  0  0  0
  9 10  1  0  0  0  0
  9 12  2  0  0  0  0
  9 13  1  0  0  0  0
 11 16  2  0  0  0  0
 11 19  1  0  0  0  0
 12 18  1  0  0  0  0
 13 14  2  0  0  0  0
 13 36  1  0  0  0  0
 14 20  1  0  0  0  0
 14 22  1  0  0  0  0
 15 16  1  0  0  0  0
 15 17  2  0  0  0  0
 15 23  1  0  0  0  0
 16 38  1  0  0  0  0
 17 21  1  0  0  0  0
 18 20  2  0  0  0  0
 18 39  1  0  0  0  0
 19 21  2  0  0  0  0
 19 40  1  0  0  0  0
 20 41  1  0  0  0  0
 21 42  1  0  0  0  0
 22 25  2  0  0  0  0
 22 43  1  0  0  0  0
 23 44  1  0  0  0  0
 23 45  1  0  0  0  0
 23 46  1  0  0  0  0
 24 47  1  0  0  0  0
 25 26  1  0  0  0  0
 25 48  1  0  0  0  0
 26 49  1  0  0  0  0
 26 50  1  0  0  0  0
 27 28  1  0  0  0  0
 27 29  2  0  0  0  0
 28 30  2  0  0  0  0
 28 52  1  0  0  0  0
 29 53  1  0  0  0  0
 30 31  1  0  0  0  0
 30 54  1  0  0  0  0
 31 34  1  0  0  0  0
 32 33  1  0  0  0  0
 33 55  1  0  0  0  0
 33 56  1  0  0  0  0
 34 57  1  0  0  0  0
 34 58  1  0  0  0  0
 34 59  1  0  0  0  0
 35 60  1  0  0  0  0
 35 61  1  0  0  0  0
 35 62  1  0  0  0  0
M  END
> <PUBCHEM_COMPOUND_CID>
9874913

> <PUBCHEM_COMPOUND_CANONICALIZED>
1

> <PUBCHEM_CACTVS_COMPLEXITY>
692

> <PUBCHEM_CACTVS_HBOND_ACCEPTOR>
7

> <PUBCHEM_CACTVS_HBOND_DONOR>
2

> <PUBCHEM_CACTVS_ROTATABLE_BOND>
9

> <PUBCHEM_CACTVS_SUBSKEYS>
AAADceB7sAAAAAAAAAAAAAAAAAAAAAAAAAA8eIEAAAAAAACx/AAAHgAQAAAADAzhngY/9vbIFACoAzd3dAaCiCkxYqAJ2KB/bJiOLuLE+d+HPCjs1hPY6CewwGAOCEACQAAKAAAQgASAABQAAAAAAAAAAA==

> <PUBCHEM_IUPAC_OPENEYE_NAME>
2-methoxy-N-[(E)-3-[4-[3-methyl-4-[(6-methyl-3-pyridyl)oxy]anilino]quinazolin-6-yl]allyl]acetamide

> <PUBCHEM_IUPAC_CAS_NAME>
2-methoxy-N-[(E)-3-[4-[3-methyl-4-[(6-methyl-3-pyridinyl)oxy]anilino]-6-quinazolinyl]prop-2-enyl]acetamide

> <PUBCHEM_IUPAC_NAME>
2-methoxy-N-[(E)-3-[4-[3-methyl-4-(6-methylpyridin-3-yl)oxyanilino]quinazolin-6-yl]prop-2-enyl]acetamide

> <PUBCHEM_IUPAC_SYSTEMATIC_NAME>
2-methoxy-N-[(E)-3-[4-[[3-methyl-4-(6-methylpyridin-3-yl)oxy-phenyl]amino]quinazolin-6-yl]prop-2-enyl]ethanamide

> <PUBCHEM_IUPAC_TRADITIONAL_NAME>
2-methoxy-N-[(E)-3-[4-[3-methyl-4-[(6-methyl-3-pyridyl)oxy]anilino]quinazolin-6-yl]allyl]acetamide

> <PUBCHEM_IUPAC_INCHI>
InChI=1S/C27H27N5O3/c1-18-13-21(8-11-25(18)35-22-9-6-19(2)29-15-22)32-27-23-14-20(7-10-24(23)30-17-31-27)5-4-12-28-26(33)16-34-3/h4-11,13-15,17H,12,16H2,1-3H3,(H,28,33)(H,30,31,32)/b5-4+

> <PUBCHEM_IUPAC_INCHIKEY>
LLVZBTWPGQVVLW-SNAWJCMRSA-N

> <PUBCHEM_XLOGP3_AA>
4.3

> <PUBCHEM_EXACT_MASS>
469.211

> <PUBCHEM_MOLECULAR_FORMULA>
C27H27N5O3

> <PUBCHEM_MOLECULAR_WEIGHT>
469.545

> <PUBCHEM_OPENEYE_CAN_SMILES>
CC1=NC=C(C=C1)OC2=C(C=C(C=C2)NC3=NC=NC4=C3C=C(C=C4)C=CCNC(=O)COC)C

> <PUBCHEM_OPENEYE_ISO_SMILES>
CC1=NC=C(C=C1)OC2=C(C=C(C=C2)NC3=NC=NC4=C3C=C(C=C4)/C=C/CNC(=O)COC)C

> <PUBCHEM_CACTVS_TPSA>
98.3

> <PUBCHEM_MONOISOTOPIC_WEIGHT>
469.211

> <PUBCHEM_TOTAL_CHARGE>
0

> <PUBCHEM_HEAVY_ATOM_COUNT>
35

> <PUBCHEM_ATOM_DEF_STEREO_COUNT>
0

> <PUBCHEM_ATOM_UDEF_STEREO_COUNT>
0

> <PUBCHEM_BOND_DEF_STEREO_COUNT>
1

> <PUBCHEM_BOND_UDEF_STEREO_COUNT>
0

> <PUBCHEM_ISOTOPIC_ATOM_COUNT>
0

> <PUBCHEM_COMPONENT_COUNT>
1

> <PUBCHEM_CACTVS_TAUTO_COUNT>
8

> <PUBCHEM_COORDINATE_TYPE>
1
5
255

> <PUBCHEM_BONDANNOTATIONS>
11  16  8
11  19  8
12  18  8
13  14  8
14  20  8
15  16  8
15  17  8
17  21  8
18  20  8
19  21  8
27  28  8
27  29  8
28  30  8
30  31  8
5  10  8
5  24  8
6  12  8
6  24  8
8  29  8
8  31  8
9  10  8
9  12  8
9  13  8

$$$$
4521392
  -OEChem-11021605012D

 45 49  0     0  0  0  0  0  0999 V2000
    9.2484   -1.6407    0.0000 O   0  0  0  0  0  0  0  0  0  0  0  0
    9.2484   -3.2502    0.0000 O   0  0  0  0  0  0  0  0  0  0  0  0
    2.0000    3.5157    0.0000 O   0  0  0  0  0  0  0  0  0  0  0  0
    4.1215   -1.1090    0.0000 N   0  0  0  0  0  0  0  0  0  0  0  0
    5.5996   -0.4509    0.0000 N   0  0  0  0  0  0  0  0  0  0  0  0
    5.3258   -3.4994    0.0000 N   0  0  0  0  0  0  0  0  0  0  0  0
    3.5823    4.2202    0.0000 N   0  0  0  0  0  0  0  0  0  0  0  0
    5.7041   -1.4454    0.0000 C   0  0  0  0  0  0  0  0  0  0  0  0
    4.7906   -1.8522    0.0000 C   0  0  0  0  0  0  0  0  0  0  0  0
    6.5702   -1.9454    0.0000 C   0  0  0  0  0  0  0  0  0  0  0  0
    4.6215   -0.2430    0.0000 C   0  0  0  0  0  0  0  0  0  0  0  0
    7.4362   -1.4454    0.0000 C   0  0  0  0  0  0  0  0  0  0  0  0
    8.3022   -1.9454    0.0000 C   0  0  0  0  0  0  0  0  0  0  0  0
    4.2147    0.6706    0.0000 C   0  0  0  0  0  0  0  0  0  0  0  0
    6.5702   -2.9454    0.0000 C   0  0  0  0  0  0  0  0  0  0  0  0
    8.3022   -2.9454    0.0000 C   0  0  0  0  0  0  0  0  0  0  0  0
    4.5827   -2.8303    0.0000 C   0  0  0  0  0  0  0  0  0  0  0  0
    7.4362   -3.4454    0.0000 C   0  0  0  0  0  0  0  0  0  0  0  0
    4.8025    1.4796    0.0000 C   0  0  0  0  0  0  0  0  0  0  0  0
    3.2202    0.7751    0.0000 C   0  0  0  0  0  0  0  0  0  0  0  0
    9.8320   -2.4454    0.0000 C   0  0  0  0  0  0  0  0  0  0  0  0
    3.6316   -3.1393    0.0000 C   0  0  0  0  0  0  0  0  0  0  0  0
    4.3958    2.3931    0.0000 C   0  0  0  0  0  0  0  0  0  0  0  0
    2.8135    1.6886    0.0000 C   0  0  0  0  0  0  0  0  0  0  0  0
    3.4013    2.4976    0.0000 C   0  0  0  0  0  0  0  0  0  0  0  0
    3.4237   -4.1175    0.0000 C   0  0  0  0  0  0  0  0  0  0  0  0
    5.1179   -4.4776    0.0000 C   0  0  0  0  0  0  0  0  0  0  0  0
    4.1669   -4.7866    0.0000 C   0  0  0  0  0  0  0  0  0  0  0  0
    2.9945    3.4112    0.0000 C   0  0  0  0  0  0  0  0  0  0  0  0
    3.5049   -1.1738    0.0000 H   0  0  0  0  0  0  0  0  0  0  0  0
    7.4362   -0.8254    0.0000 H   0  0  0  0  0  0  0  0  0  0  0  0
    6.0332   -3.2554    0.0000 H   0  0  0  0  0  0  0  0  0  0  0  0
    7.4362   -4.0654    0.0000 H   0  0  0  0  0  0  0  0  0  0  0  0
    5.4191    1.4148    0.0000 H   0  0  0  0  0  0  0  0  0  0  0  0
    2.8558    0.2735    0.0000 H   0  0  0  0  0  0  0  0  0  0  0  0
   10.2929   -2.8602    0.0000 H   0  0  0  0  0  0  0  0  0  0  0  0
   10.2929   -2.0307    0.0000 H   0  0  0  0  0  0  0  0  0  0  0  0
    3.1709   -2.7245    0.0000 H   0  0  0  0  0  0  0  0  0  0  0  0
    4.7602    2.8947    0.0000 H   0  0  0  0  0  0  0  0  0  0  0  0
    2.1969    1.7534    0.0000 H   0  0  0  0  0  0  0  0  0  0  0  0
    2.8341   -4.3091    0.0000 H   0  0  0  0  0  0  0  0  0  0  0  0
    5.5787   -4.8924    0.0000 H   0  0  0  0  0  0  0  0  0  0  0  0
    4.0380   -5.3931    0.0000 H   0  0  0  0  0  0  0  0  0  0  0  0
    3.3301    4.7866    0.0000 H   0  0  0  0  0  0  0  0  0  0  0  0
    4.1989    4.1554    0.0000 H   0  0  0  0  0  0  0  0  0  0  0  0
  1 13  1  0  0  0  0
  1 21  1  0  0  0  0
  2 16  1  0  0  0  0
  2 21  1  0  0  0  0
  3 29  2  0  0  0  0
  4  9  1  0  0  0  0
  4 11  1  0  0  0  0
  4 30  1  0  0  0  0
  5  8  1  0  0  0  0
  5 11  2  0  0  0  0
  6 17  1  0  0  0  0
  6 27  2  0  0  0  0
  7 29  1  0  0  0  0
  7 44  1  0  0  0  0
  7 45  1  0  0  0  0
  8  9  2  0  0  0  0
  8 10  1  0  0  0  0
  9 17  1  0  0  0  0
 10 12  2  0  0  0  0
 10 15  1  0  0  0  0
 11 14  1  0  0  0  0
 12 13  1  0  0  0  0
 12 31  1  0  0  0  0
 13 16  2  0  0  0  0
 14 19  2  0  0  0  0
 14 20  1  0  0  0  0
 15 18  2  0  0  0  0
 15 32  1  0  0  0  0
 16 18  1  0  0  0  0
 17 22  2  0  0  0  0
 18 33  1  0  0  0  0
 19 23  1  0  0  0  0
 19 34  1  0  0  0  0
 20 24  2  0  0  0  0
 20 35  1  0  0  0  0
 21 36  1  0  0  0  0
 21 37  1  0  0  0  0
 22 26  1  0  0  0  0
 22 38  1  0  0  0  0
 23 25  2  0  0  0  0
 23 39  1  0  0  0  0
 24 25  1  0  0  0  0
 24 40  1  0  0  0  0
 25 29  1  0  0  0  0
 26 28  2  0  0  0  0
 26 41  1  0  0  0  0
 27 28  1  0  0  0  0
 27 42  1  0  0  0  0
 28 43  1  0  0  0  0
M  END
> <PUBCHEM_COMPOUND_CID>
4521392

> <PUBCHEM_COMPOUND_CANONICALIZED>
1

> <PUBCHEM_CACTVS_COMPLEXITY>
582

> <PUBCHEM_CACTVS_HBOND_ACCEPTOR>
5

> <PUBCHEM_CACTVS_HBOND_DONOR>
2

> <PUBCHEM_CACTVS_ROTATABLE_BOND>
4

> <PUBCHEM_CACTVS_SUBSKEYS>
AAADceB7sAAAAAAAAAAAAAAAAAAAAWJAAAA8YIAAAAAAAEgB9AAAHgAQAAAADAzBnwc9npbJlACoAzd3dACCiC21MqAJ2SE+/NidbvLE/Zu0MSpswBPO6ae42POOYAABAAAAQADAAAIAAACAAAAAAAAAAA==

> <PUBCHEM_IUPAC_OPENEYE_NAME>
4-[4-(1,3-benzodioxol-5-yl)-5-(2-pyridyl)-1H-imidazol-2-yl]benzamide

> <PUBCHEM_IUPAC_CAS_NAME>
4-[4-(1,3-benzodioxol-5-yl)-5-(2-pyridinyl)-1H-imidazol-2-yl]benzamide

> <PUBCHEM_IUPAC_NAME>
4-[4-(1,3-benzodioxol-5-yl)-5-pyridin-2-yl-1H-imidazol-2-yl]benzamide

> <PUBCHEM_IUPAC_SYSTEMATIC_NAME>
4-[4-(1,3-benzodioxol-5-yl)-5-pyridin-2-yl-1H-imidazol-2-yl]benzamide

> <PUBCHEM_IUPAC_TRADITIONAL_NAME>
4-[4-(1,3-benzodioxol-5-yl)-5-(2-pyridyl)-1H-imidazol-2-yl]benzamide

> <PUBCHEM_IUPAC_INCHI>
InChI=1S/C22H16N4O3/c23-21(27)13-4-6-14(7-5-13)22-25-19(20(26-22)16-3-1-2-10-24-16)15-8-9-17-18(11-15)29-12-28-17/h1-11H,12H2,(H2,23,27)(H,25,26)

> <PUBCHEM_IUPAC_INCHIKEY>
FHYUGAJXYORMHI-UHFFFAOYSA-N

> <PUBCHEM_XLOGP3_AA>
2.7

> <PUBCHEM_EXACT_MASS>
384.122

> <PUBCHEM_MOLECULAR_FORMULA>
C22H16N4O3

> <PUBCHEM_MOLECULAR_WEIGHT>
384.395

> <PUBCHEM_OPENEYE_CAN_SMILES>
C1OC2=C(O1)C=C(C=C2)C3=C(NC(=N3)C4=CC=C(C=C4)C(=O)N)C5=CC=CC=N5

> <PUBCHEM_OPENEYE_ISO_SMILES>
C1OC2=C(O1)C=C(C=C2)C3=C(NC(=N3)C4=CC=C(C=C4)C(=O)N)C5=CC=CC=N5

> <PUBCHEM_CACTVS_TPSA>
103

> <PUBCHEM_MONOISOTOPIC_WEIGHT>
384.122

> <PUBCHEM_TOTAL_CHARGE>
0

> <PUBCHEM_HEAVY_ATOM_COUNT>
29

> <PUBCHEM_ATOM_DEF_STEREO_COUNT>
0

> <PUBCHEM_ATOM_UDEF_STEREO_COUNT>
0

> <PUBCHEM_BOND_DEF_STEREO_COUNT>
0

> <PUBCHEM_BOND_UDEF_STEREO_COUNT>
0

> <PUBCHEM_ISOTOPIC_ATOM_COUNT>
0

> <PUBCHEM_COMPONENT_COUNT>
1

> <PUBCHEM_CACTVS_TAUTO_COUNT>
9

> <PUBCHEM_COORDINATE_TYPE>
1
5
255

> <PUBCHEM_BONDANNOTATIONS>
10  12  8
10  15  8
12  13  8
13  16  8
14  19  8
14  20  8
15  18  8
16  18  8
17  22  8
19  23  8
20  24  8
22  26  8
23  25  8
24  25  8
26  28  8
27  28  8
4  11  8
4  9  8
5  11  8
5  8  8
6  17  8
6  27  8
8  9  8

$$$$
11656518
  -OEChem-11021605012D

 53 57  0     0  0  0  0  0  0999 V2000
   16.6637   -3.0427    0.0000 F   0  0  0  0  0  0  0  0  0  0  0  0
   17.0298   -1.6767    0.0000 F   0  0  0  0  0  0  0  0  0  0  0  0
   15.2977   -2.6767    0.0000 F   0  0  0  0  0  0  0  0  0  0  0  0
    2.0000    0.1601    0.0000 F   0  0  0  0  0  0  0  0  0  0  0  0
    2.8900   -0.9390    0.0000 F   0  0  0  0  0  0  0  0  0  0  0  0
    3.0990    1.0501    0.0000 F   0  0  0  0  0  0  0  0  0  0  0  0
    9.0358    0.2874    0.0000 O   0  0  0  0  0  0  0  0  0  0  0  0
   12.5801    2.0922    0.0000 N   0  0  0  0  0  0  0  0  0  0  0  0
   12.5801    0.4827    0.0000 N   0  0  0  0  0  0  0  0  0  0  0  0
   14.1637    1.2874    0.0000 N   0  0  0  0  0  0  0  0  0  0  0  0
    4.6582    0.6942    0.0000 N   0  0  0  0  0  0  0  0  0  0  0  0
    6.4378    1.7874    0.0000 N   0  0  0  0  0  0  0  0  0  0  0  0
    5.4672   -0.7071    0.0000 N   0  0  0  0  0  0  0  0  0  0  0  0
   11.6339    1.7874    0.0000 C   0  0  0  0  0  0  0  0  0  0  0  0
   11.6339    0.7874    0.0000 C   0  0  0  0  0  0  0  0  0  0  0  0
   13.1637    1.2874    0.0000 C   0  0  0  0  0  0  0  0  0  0  0  0
   10.7679    2.2874    0.0000 C   0  0  0  0  0  0  0  0  0  0  0  0
   10.7679    0.2874    0.0000 C   0  0  0  0  0  0  0  0  0  0  0  0
    9.9018    0.7874    0.0000 C   0  0  0  0  0  0  0  0  0  0  0  0
   12.8908    3.0427    0.0000 C   0  0  0  0  0  0  0  0  0  0  0  0
    9.9018    1.7874    0.0000 C   0  0  0  0  0  0  0  0  0  0  0  0
   14.6637    0.4214    0.0000 C   0  0  0  0  0  0  0  0  0  0  0  0
   15.6637    0.4214    0.0000 C   0  0  0  0  0  0  0  0  0  0  0  0
   14.1637   -0.4446    0.0000 C   0  0  0  0  0  0  0  0  0  0  0  0
    8.1698    0.7874    0.0000 C   0  0  0  0  0  0  0  0  0  0  0  0
   15.6637   -1.3106    0.0000 C   0  0  0  0  0  0  0  0  0  0  0  0
    6.4378    0.7874    0.0000 C   0  0  0  0  0  0  0  0  0  0  0  0
   16.1637   -0.4446    0.0000 C   0  0  0  0  0  0  0  0  0  0  0  0
   14.6637   -1.3106    0.0000 C   0  0  0  0  0  0  0  0  0  0  0  0
    7.3038    0.2874    0.0000 C   0  0  0  0  0  0  0  0  0  0  0  0
    5.5717    0.2874    0.0000 C   0  0  0  0  0  0  0  0  0  0  0  0
    3.9890   -0.0490    0.0000 C   0  0  0  0  0  0  0  0  0  0  0  0
    8.1698    1.7874    0.0000 C   0  0  0  0  0  0  0  0  0  0  0  0
   16.1637   -2.1767    0.0000 C   0  0  0  0  0  0  0  0  0  0  0  0
    4.4890   -0.9150    0.0000 C   0  0  0  0  0  0  0  0  0  0  0  0
    7.3038    2.2874    0.0000 C   0  0  0  0  0  0  0  0  0  0  0  0
    2.9945    0.0556    0.0000 C   0  0  0  0  0  0  0  0  0  0  0  0
   10.7679    2.9074    0.0000 H   0  0  0  0  0  0  0  0  0  0  0  0
   10.7679   -0.3326    0.0000 H   0  0  0  0  0  0  0  0  0  0  0  0
   13.4801    2.8501    0.0000 H   0  0  0  0  0  0  0  0  0  0  0  0
   13.0834    3.6320    0.0000 H   0  0  0  0  0  0  0  0  0  0  0  0
   12.3015    3.2353    0.0000 H   0  0  0  0  0  0  0  0  0  0  0  0
   14.4737    1.8244    0.0000 H   0  0  0  0  0  0  0  0  0  0  0  0
    9.3649    2.0974    0.0000 H   0  0  0  0  0  0  0  0  0  0  0  0
   15.9737    0.9583    0.0000 H   0  0  0  0  0  0  0  0  0  0  0  0
   13.5437   -0.4446    0.0000 H   0  0  0  0  0  0  0  0  0  0  0  0
   16.7837   -0.4446    0.0000 H   0  0  0  0  0  0  0  0  0  0  0  0
   14.3537   -1.8476    0.0000 H   0  0  0  0  0  0  0  0  0  0  0  0
    7.3038   -0.3326    0.0000 H   0  0  0  0  0  0  0  0  0  0  0  0
    4.5293    1.3006    0.0000 H   0  0  0  0  0  0  0  0  0  0  0  0
    8.7067    2.0974    0.0000 H   0  0  0  0  0  0  0  0  0  0  0  0
    4.2369   -1.4814    0.0000 H   0  0  0  0  0  0  0  0  0  0  0  0
    7.3038    2.9074    0.0000 H   0  0  0  0  0  0  0  0  0  0  0  0
  1 34  1  0  0  0  0
  2 34  1  0  0  0  0
  3 34  1  0  0  0  0
  4 37  1  0  0  0  0
  5 37  1  0  0  0  0
  6 37  1  0  0  0  0
  7 19  1  0  0  0  0
  7 25  1  0  0  0  0
  8 14  1  0  0  0  0
  8 16  1  0  0  0  0
  8 20  1  0  0  0  0
  9 15  1  0  0  0  0
  9 16  2  0  0  0  0
 10 16  1  0  0  0  0
 10 22  1  0  0  0  0
 10 43  1  0  0  0  0
 11 31  1  0  0  0  0
 11 32  1  0  0  0  0
 11 50  1  0  0  0  0
 12 27  2  0  0  0  0
 12 36  1  0  0  0  0
 13 31  2  0  0  0  0
 13 35  1  0  0  0  0
 14 15  2  0  0  0  0
 14 17  1  0  0  0  0
 15 18  1  0  0  0  0
 17 21  2  0  0  0  0
 17 38  1  0  0  0  0
 18 19  2  0  0  0  0
 18 39  1  0  0  0  0
 19 21  1  0  0  0  0
 20 40  1  0  0  0  0
 20 41  1  0  0  0  0
 20 42  1  0  0  0  0
 21 44  1  0  0  0  0
 22 23  2  0  0  0  0
 22 24  1  0  0  0  0
 23 28  1  0  0  0  0
 23 45  1  0  0  0  0
 24 29  2  0  0  0  0
 24 46  1  0  0  0  0
 25 30  2  0  0  0  0
 25 33  1  0  0  0  0
 26 28  2  0  0  0  0
 26 29  1  0  0  0  0
 26 34  1  0  0  0  0
 27 30  1  0  0  0  0
 27 31  1  0  0  0  0
 28 47  1  0  0  0  0
 29 48  1  0  0  0  0
 30 49  1  0  0  0  0
 32 35  2  0  0  0  0
 32 37  1  0  0  0  0
 33 36  2  0  0  0  0
 33 51  1  0  0  0  0
 35 52  1  0  0  0  0
 36 53  1  0  0  0  0
M  END
> <PUBCHEM_COMPOUND_CID>
11656518

> <PUBCHEM_COMPOUND_CANONICALIZED>
1

> <PUBCHEM_CACTVS_COMPLEXITY>
763

> <PUBCHEM_CACTVS_HBOND_ACCEPTOR>
11

> <PUBCHEM_CACTVS_HBOND_DONOR>
2

> <PUBCHEM_CACTVS_ROTATABLE_BOND>
5

> <PUBCHEM_CACTVS_SUBSKEYS>
AAADceB7ocAAAAAAAAAAAAAAAAAAAWLAAAA8YIAAAAAAAFgB/gAAHwAQAAAADAzBnxQ/1rfNlACgAzZnZACCiC2xMqAJ2SA+fJiMbuLEuZuWOCju0BvI6Cew0AMOCEAAAgAAACAQgAAEAAAAQAAAAAAAAA==

> <PUBCHEM_IUPAC_OPENEYE_NAME>
1-methyl-5-[[2-[5-(trifluoromethyl)-1H-imidazol-2-yl]-4-pyridyl]oxy]-N-[4-(trifluoromethyl)phenyl]benzimidazol-2-amine

> <PUBCHEM_IUPAC_CAS_NAME>
1-methyl-5-[[2-[5-(trifluoromethyl)-1H-imidazol-2-yl]-4-pyridinyl]oxy]-N-[4-(trifluoromethyl)phenyl]-2-benzimidazolamine

> <PUBCHEM_IUPAC_NAME>
1-methyl-5-[2-[5-(trifluoromethyl)-1H-imidazol-2-yl]pyridin-4-yl]oxy-N-[4-(trifluoromethyl)phenyl]benzimidazol-2-amine

> <PUBCHEM_IUPAC_SYSTEMATIC_NAME>
1-methyl-5-[2-[5-(trifluoromethyl)-1H-imidazol-2-yl]pyridin-4-yl]oxy-N-[4-(trifluoromethyl)phenyl]benzimidazol-2-amine

> <PUBCHEM_IUPAC_TRADITIONAL_NAME>
[1-methyl-5-[[2-[5-(trifluoromethyl)-1H-imidazol-2-yl]-4-pyridyl]oxy]benzimidazol-2-yl]-[4-(trifluoromethyl)phenyl]amine

> <PUBCHEM_IUPAC_INCHI>
InChI=1S/C24H16F6N6O/c1-36-19-7-6-15(10-17(19)34-22(36)33-14-4-2-13(3-5-14)23(25,26)27)37-16-8-9-31-18(11-16)21-32-12-20(35-21)24(28,29)30/h2-12H,1H3,(H,32,35)(H,33,34)

> <PUBCHEM_IUPAC_INCHIKEY>
YABJJWZLRMPFSI-UHFFFAOYSA-N

> <PUBCHEM_XLOGP3_AA>
5.4

> <PUBCHEM_EXACT_MASS>
518.129

> <PUBCHEM_MOLECULAR_FORMULA>
C24H16F6N6O

> <PUBCHEM_MOLECULAR_WEIGHT>
518.423

> <PUBCHEM_OPENEYE_CAN_SMILES>
CN1C2=C(C=C(C=C2)OC3=CC(=NC=C3)C4=NC=C(N4)C(F)(F)F)N=C1NC5=CC=C(C=C5)C(F)(F)F

> <PUBCHEM_OPENEYE_ISO_SMILES>
CN1C2=C(C=C(C=C2)OC3=CC(=NC=C3)C4=NC=C(N4)C(F)(F)F)N=C1NC5=CC=C(C=C5)C(F)(F)F

> <PUBCHEM_CACTVS_TPSA>
80.6

> <PUBCHEM_MONOISOTOPIC_WEIGHT>
518.129

> <PUBCHEM_TOTAL_CHARGE>
0

> <PUBCHEM_HEAVY_ATOM_COUNT>
37

> <PUBCHEM_ATOM_DEF_STEREO_COUNT>
0

> <PUBCHEM_ATOM_UDEF_STEREO_COUNT>
0

> <PUBCHEM_BOND_DEF_STEREO_COUNT>
0

> <PUBCHEM_BOND_UDEF_STEREO_COUNT>
0

> <PUBCHEM_ISOTOPIC_ATOM_COUNT>
0

> <PUBCHEM_COMPONENT_COUNT>
1

> <PUBCHEM_CACTVS_TAUTO_COUNT>
6

> <PUBCHEM_COORDINATE_TYPE>
1
5
255

> <PUBCHEM_BONDANNOTATIONS>
11  31  8
11  32  8
12  27  8
12  36  8
13  31  8
13  35  8
14  15  8
14  17  8
15  18  8
17  21  8
18  19  8
19  21  8
22  23  8
22  24  8
23  28  8
24  29  8
25  30  8
25  33  8
26  28  8
26  29  8
27  30  8
32  35  8
33  36  8
8  14  8
8  16  8
9  15  8
9  16  8

$$$$
9977819
  -OEChem-11021605012D

 50 54  0     0  0  0  0  0  0999 V2000
   10.0553    0.7121    0.0000 F   0  0  0  0  0  0  0  0  0  0  0  0
    6.5749    3.7467    0.0000 O   0  0  0  0  0  0  0  0  0  0  0  0
    3.5000   -1.1833    0.0000 N   0  0  0  0  0  0  0  0  0  0  0  0
    2.5000   -2.9153    0.0000 N   0  0  0  0  0  0  0  0  0  0  0  0
    6.4718    0.7580    0.0000 N   0  0  0  0  0  0  0  0  0  0  0  0
    5.6671    2.1518    0.0000 N   0  0  0  0  0  0  0  0  0  0  0  0
    8.3069    3.7467    0.0000 N   0  0  0  0  0  0  0  0  0  0  0  0
    8.3069    0.7467    0.0000 N   0  0  0  0  0  0  0  0  0  0  0  0
    2.5000   -1.1833    0.0000 C   0  0  0  0  0  0  0  0  0  0  0  0
    4.0000   -2.0493    0.0000 C   0  0  0  0  0  0  0  0  0  0  0  0
    3.5000   -2.9153    0.0000 C   0  0  0  0  0  0  0  0  0  0  0  0
    2.0000   -2.0493    0.0000 C   0  0  0  0  0  0  0  0  0  0  0  0
    4.0000   -0.3173    0.0000 C   0  0  0  0  0  0  0  0  0  0  0  0
    5.5000    0.5488    0.0000 C   0  0  0  0  0  0  0  0  0  0  0  0
    5.0000   -0.3173    0.0000 C   0  0  0  0  0  0  0  0  0  0  0  0
    5.0000    1.4148    0.0000 C   0  0  0  0  0  0  0  0  0  0  0  0
    2.0000   -3.7814    0.0000 C   0  0  0  0  0  0  0  0  0  0  0  0
    3.5000    0.5488    0.0000 C   0  0  0  0  0  0  0  0  0  0  0  0
    6.5749    1.7467    0.0000 C   0  0  0  0  0  0  0  0  0  0  0  0
    4.0000    1.4148    0.0000 C   0  0  0  0  0  0  0  0  0  0  0  0
    7.4409    2.2467    0.0000 C   0  0  0  0  0  0  0  0  0  0  0  0
    8.3069    1.7467    0.0000 C   0  0  0  0  0  0  0  0  0  0  0  0
    9.1730    2.2467    0.0000 C   0  0  0  0  0  0  0  0  0  0  0  0
    7.4409    3.2467    0.0000 C   0  0  0  0  0  0  0  0  0  0  0  0
    9.1730    3.2467    0.0000 C   0  0  0  0  0  0  0  0  0  0  0  0
   10.0669    1.7120    0.0000 C   0  0  0  0  0  0  0  0  0  0  0  0
   10.0669    3.7814    0.0000 C   0  0  0  0  0  0  0  0  0  0  0  0
   10.9730    2.2259    0.0000 C   0  0  0  0  0  0  0  0  0  0  0  0
   10.9730    3.2675    0.0000 C   0  0  0  0  0  0  0  0  0  0  0  0
    2.6077   -0.5727    0.0000 H   0  0  0  0  0  0  0  0  0  0  0  0
    1.9174   -0.9712    0.0000 H   0  0  0  0  0  0  0  0  0  0  0  0
    4.4750   -2.4478    0.0000 H   0  0  0  0  0  0  0  0  0  0  0  0
    4.4750   -1.6508    0.0000 H   0  0  0  0  0  0  0  0  0  0  0  0
    3.3923   -3.5259    0.0000 H   0  0  0  0  0  0  0  0  0  0  0  0
    4.0826   -3.1274    0.0000 H   0  0  0  0  0  0  0  0  0  0  0  0
    1.5250   -1.6508    0.0000 H   0  0  0  0  0  0  0  0  0  0  0  0
    1.5250   -2.4478    0.0000 H   0  0  0  0  0  0  0  0  0  0  0  0
    5.3100   -0.8542    0.0000 H   0  0  0  0  0  0  0  0  0  0  0  0
    1.4631   -3.4714    0.0000 H   0  0  0  0  0  0  0  0  0  0  0  0
    1.6900   -4.3183    0.0000 H   0  0  0  0  0  0  0  0  0  0  0  0
    2.5369   -4.0914    0.0000 H   0  0  0  0  0  0  0  0  0  0  0  0
    2.8800    0.5488    0.0000 H   0  0  0  0  0  0  0  0  0  0  0  0
    3.6900    1.9517    0.0000 H   0  0  0  0  0  0  0  0  0  0  0  0
    6.9333    0.3439    0.0000 H   0  0  0  0  0  0  0  0  0  0  0  0
    5.5392    2.7585    0.0000 H   0  0  0  0  0  0  0  0  0  0  0  0
    8.8439    0.4367    0.0000 H   0  0  0  0  0  0  0  0  0  0  0  0
    7.7700    0.4367    0.0000 H   0  0  0  0  0  0  0  0  0  0  0  0
   10.0597    4.4013    0.0000 H   0  0  0  0  0  0  0  0  0  0  0  0
   11.5087    1.9138    0.0000 H   0  0  0  0  0  0  0  0  0  0  0  0
   11.5087    3.5796    0.0000 H   0  0  0  0  0  0  0  0  0  0  0  0
  1 26  1  0  0  0  0
  2 24  2  0  0  0  0
  3  9  1  0  0  0  0
  3 10  1  0  0  0  0
  3 13  1  0  0  0  0
  4 11  1  0  0  0  0
  4 12  1  0  0  0  0
  4 17  1  0  0  0  0
  5 14  1  0  0  0  0
  5 19  1  0  0  0  0
  5 44  1  0  0  0  0
  6 16  1  0  0  0  0
  6 19  1  0  0  0  0
  6 45  1  0  0  0  0
  7 24  1  0  0  0  0
  7 25  2  0  0  0  0
  8 22  1  0  0  0  0
  8 46  1  0  0  0  0
  8 47  1  0  0  0  0
  9 12  1  0  0  0  0
  9 30  1  0  0  0  0
  9 31  1  0  0  0  0
 10 11  1  0  0  0  0
 10 32  1  0  0  0  0
 10 33  1  0  0  0  0
 11 34  1  0  0  0  0
 11 35  1  0  0  0  0
 12 36  1  0  0  0  0
 12 37  1  0  0  0  0
 13 15  2  0  0  0  0
 13 18  1  0  0  0  0
 14 15  1  0  0  0  0
 14 16  2  0  0  0  0
 15 38  1  0  0  0  0
 16 20  1  0  0  0  0
 17 39  1  0  0  0  0
 17 40  1  0  0  0  0
 17 41  1  0  0  0  0
 18 20  2  0  0  0  0
 18 42  1  0  0  0  0
 19 21  2  0  0  0  0
 20 43  1  0  0  0  0
 21 22  1  0  0  0  0
 21 24  1  0  0  0  0
 22 23  2  0  0  0  0
 23 25  1  0  0  0  0
 23 26  1  0  0  0  0
 25 27  1  0  0  0  0
 26 28  2  0  0  0  0
 27 29  2  0  0  0  0
 27 48  1  0  0  0  0
 28 29  1  0  0  0  0
 28 49  1  0  0  0  0
 29 50  1  0  0  0  0
M  END
> <PUBCHEM_COMPOUND_CID>
9977819

> <PUBCHEM_COMPOUND_CANONICALIZED>
1

> <PUBCHEM_CACTVS_COMPLEXITY>
893

> <PUBCHEM_CACTVS_HBOND_ACCEPTOR>
7

> <PUBCHEM_CACTVS_HBOND_DONOR>
3

> <PUBCHEM_CACTVS_ROTATABLE_BOND>
1

> <PUBCHEM_CACTVS_SUBSKEYS>
AAADceB7oQAAAAAAAAAAAAAAAAAAAWAAAAA8QIEAAAAAAFiBAAAAHwAQAAAADAjBkAQzwIPAAACoAyVyVACCAAAhAgAIiAE4dNiIYCrA0dGUIAhokALIyGcQAAAAAACAAAQAACAAAQAACAAAQAAAAAAAAA==

> <PUBCHEM_IUPAC_OPENEYE_NAME>
(3E)-4-amino-5-fluoro-3-[5-(4-methylpiperazin-1-yl)-1,3-dihydrobenzimidazol-2-ylidene]quinolin-2-one

> <PUBCHEM_IUPAC_CAS_NAME>
(3E)-4-amino-5-fluoro-3-[5-(4-methyl-1-piperazinyl)-1,3-dihydrobenzimidazol-2-ylidene]-2-quinolinone

> <PUBCHEM_IUPAC_NAME>
(3E)-4-amino-5-fluoro-3-[5-(4-methylpiperazin-1-yl)-1,3-dihydrobenzimidazol-2-ylidene]quinolin-2-one

> <PUBCHEM_IUPAC_SYSTEMATIC_NAME>
(3E)-4-azanyl-5-fluoranyl-3-[5-(4-methylpiperazin-1-yl)-1,3-dihydrobenzimidazol-2-ylidene]quinolin-2-one

> <PUBCHEM_IUPAC_TRADITIONAL_NAME>
(3E)-4-amino-5-fluoro-3-[5-(4-methylpiperazino)-1,3-dihydrobenzimidazol-2-ylidene]carbostyril

> <PUBCHEM_IUPAC_INCHI>
InChI=1S/C21H21FN6O/c1-27-7-9-28(10-8-27)12-5-6-14-16(11-12)25-20(24-14)18-19(23)17-13(22)3-2-4-15(17)26-21(18)29/h2-6,11,24-25H,7-10,23H2,1H3/b20-18+

> <PUBCHEM_IUPAC_INCHIKEY>
KCOYQXZDFIIGCY-CZIZESTLSA-N

> <PUBCHEM_XLOGP3_AA>
1.6

> <PUBCHEM_EXACT_MASS>
392.176

> <PUBCHEM_MOLECULAR_FORMULA>
C21H21FN6O

> <PUBCHEM_MOLECULAR_WEIGHT>
392.438

> <PUBCHEM_OPENEYE_CAN_SMILES>
CN1CCN(CC1)C2=CC3=C(C=C2)NC(=C4C(=C5C(=NC4=O)C=CC=C5F)N)N3

> <PUBCHEM_OPENEYE_ISO_SMILES>
CN1CCN(CC1)C2=CC3=C(C=C2)N/C(=C\4/C(=C5C(=NC4=O)C=CC=C5F)N)/N3

> <PUBCHEM_CACTVS_TPSA>
86

> <PUBCHEM_MONOISOTOPIC_WEIGHT>
392.176

> <PUBCHEM_TOTAL_CHARGE>
0

> <PUBCHEM_HEAVY_ATOM_COUNT>
29

> <PUBCHEM_ATOM_DEF_STEREO_COUNT>
0

> <PUBCHEM_ATOM_UDEF_STEREO_COUNT>
0

> <PUBCHEM_BOND_DEF_STEREO_COUNT>
1

> <PUBCHEM_BOND_UDEF_STEREO_COUNT>
0

> <PUBCHEM_ISOTOPIC_ATOM_COUNT>
0

> <PUBCHEM_COMPONENT_COUNT>
1

> <PUBCHEM_CACTVS_TAUTO_COUNT>
36

> <PUBCHEM_COORDINATE_TYPE>
1
5
255

> <PUBCHEM_BONDANNOTATIONS>
13  15  8
13  18  8
14  15  8
14  16  8
16  20  8
18  20  8
23  25  8
23  26  8
25  27  8
26  28  8
27  29  8
28  29  8

$$$$
11667893
  -OEChem-11021605012D

 51 54  0     0  0  0  0  0  0999 V2000
    5.4641   -0.2500    0.0000 O   0  0  0  0  0  0  0  0  0  0  0  0
    9.8744   -1.5547    0.0000 N   0  0  0  0  0  0  0  0  0  0  0  0
    6.3301   -1.7500    0.0000 N   0  0  0  0  0  0  0  0  0  0  0  0
    3.7320   -0.2500    0.0000 N   0  0  0  0  0  0  0  0  0  0  0  0
    2.8660   -1.7500    0.0000 N   0  0  0  0  0  0  0  0  0  0  0  0
    2.8660    3.2500    0.0000 N   0  0  0  0  0  0  0  0  0  0  0  0
    9.8744    0.0547    0.0000 C   0  0  0  0  0  0  0  0  0  0  0  0
   10.4580   -0.7500    0.0000 C   0  0  0  0  0  0  0  0  0  0  0  0
    8.9282   -0.2500    0.0000 C   0  0  0  0  0  0  0  0  0  0  0  0
    8.9282   -1.2500    0.0000 C   0  0  0  0  0  0  0  0  0  0  0  0
   10.6845    0.6411    0.0000 C   0  0  0  0  0  0  0  0  0  0  0  0
    9.5670    1.0063    0.0000 C   0  0  0  0  0  0  0  0  0  0  0  0
    8.0622    0.2500    0.0000 C   0  0  0  0  0  0  0  0  0  0  0  0
    8.0622   -1.7500    0.0000 C   0  0  0  0  0  0  0  0  0  0  0  0
    7.1962   -1.2500    0.0000 C   0  0  0  0  0  0  0  0  0  0  0  0
    7.1962   -0.2500    0.0000 C   0  0  0  0  0  0  0  0  0  0  0  0
    5.4641   -1.2500    0.0000 C   0  0  0  0  0  0  0  0  0  0  0  0
    4.5981   -1.7500    0.0000 C   0  0  0  0  0  0  0  0  0  0  0  0
    3.7320   -1.2500    0.0000 C   0  0  0  0  0  0  0  0  0  0  0  0
    4.5981   -2.7500    0.0000 C   0  0  0  0  0  0  0  0  0  0  0  0
    2.8660    0.2500    0.0000 C   0  0  0  0  0  0  0  0  0  0  0  0
    2.8660    1.2500    0.0000 C   0  0  0  0  0  0  0  0  0  0  0  0
    3.7320   -3.2500    0.0000 C   0  0  0  0  0  0  0  0  0  0  0  0
    2.8660   -2.7500    0.0000 C   0  0  0  0  0  0  0  0  0  0  0  0
    3.7320    1.7500    0.0000 C   0  0  0  0  0  0  0  0  0  0  0  0
    2.0000    1.7500    0.0000 C   0  0  0  0  0  0  0  0  0  0  0  0
    3.7320    2.7500    0.0000 C   0  0  0  0  0  0  0  0  0  0  0  0
    2.0000    2.7500    0.0000 C   0  0  0  0  0  0  0  0  0  0  0  0
   10.9189   -1.1647    0.0000 H   0  0  0  0  0  0  0  0  0  0  0  0
   10.9189   -0.3353    0.0000 H   0  0  0  0  0  0  0  0  0  0  0  0
   10.0670   -2.1440    0.0000 H   0  0  0  0  0  0  0  0  0  0  0  0
   11.0480    0.1389    0.0000 H   0  0  0  0  0  0  0  0  0  0  0  0
   11.1867    1.0047    0.0000 H   0  0  0  0  0  0  0  0  0  0  0  0
   10.1570    1.1969    0.0000 H   0  0  0  0  0  0  0  0  0  0  0  0
    9.3765    1.5963    0.0000 H   0  0  0  0  0  0  0  0  0  0  0  0
    8.9771    0.8158    0.0000 H   0  0  0  0  0  0  0  0  0  0  0  0
   10.3209    1.1433    0.0000 H   0  0  0  0  0  0  0  0  0  0  0  0
    8.0622    0.8700    0.0000 H   0  0  0  0  0  0  0  0  0  0  0  0
    8.0622   -2.3700    0.0000 H   0  0  0  0  0  0  0  0  0  0  0  0
    6.6592    0.0600    0.0000 H   0  0  0  0  0  0  0  0  0  0  0  0
    6.3301   -2.3700    0.0000 H   0  0  0  0  0  0  0  0  0  0  0  0
    5.1350   -3.0600    0.0000 H   0  0  0  0  0  0  0  0  0  0  0  0
    4.2690    0.0600    0.0000 H   0  0  0  0  0  0  0  0  0  0  0  0
    2.2554    0.3577    0.0000 H   0  0  0  0  0  0  0  0  0  0  0  0
    2.6540   -0.3326    0.0000 H   0  0  0  0  0  0  0  0  0  0  0  0
    3.7320   -3.8700    0.0000 H   0  0  0  0  0  0  0  0  0  0  0  0
    2.3291   -3.0600    0.0000 H   0  0  0  0  0  0  0  0  0  0  0  0
    4.2690    1.4400    0.0000 H   0  0  0  0  0  0  0  0  0  0  0  0
    1.4631    1.4400    0.0000 H   0  0  0  0  0  0  0  0  0  0  0  0
    4.2690    3.0600    0.0000 H   0  0  0  0  0  0  0  0  0  0  0  0
    1.4631    3.0600    0.0000 H   0  0  0  0  0  0  0  0  0  0  0  0
  1 17  2  0  0  0  0
  2  8  1  0  0  0  0
  2 10  1  0  0  0  0
  2 31  1  0  0  0  0
  3 15  1  0  0  0  0
  3 17  1  0  0  0  0
  3 41  1  0  0  0  0
  4 19  1  0  0  0  0
  4 21  1  0  0  0  0
  4 43  1  0  0  0  0
  5 19  1  0  0  0  0
  5 24  2  0  0  0  0
  6 27  2  0  0  0  0
  6 28  1  0  0  0  0
  7  8  1  0  0  0  0
  7  9  1  0  0  0  0
  7 11  1  0  0  0  0
  7 12  1  0  0  0  0
  8 29  1  0  0  0  0
  8 30  1  0  0  0  0
  9 10  2  0  0  0  0
  9 13  1  0  0  0  0
 10 14  1  0  0  0  0
 11 32  1  0  0  0  0
 11 33  1  0  0  0  0
 11 37  1  0  0  0  0
 12 34  1  0  0  0  0
 12 35  1  0  0  0  0
 12 36  1  0  0  0  0
 13 16  2  0  0  0  0
 13 38  1  0  0  0  0
 14 15  2  0  0  0  0
 14 39  1  0  0  0  0
 15 16  1  0  0  0  0
 16 40  1  0  0  0  0
 17 18  1  0  0  0  0
 18 19  2  0  0  0  0
 18 20  1  0  0  0  0
 20 23  2  0  0  0  0
 20 42  1  0  0  0  0
 21 22  1  0  0  0  0
 21 44  1  0  0  0  0
 21 45  1  0  0  0  0
 22 25  2  0  0  0  0
 22 26  1  0  0  0  0
 23 24  1  0  0  0  0
 23 46  1  0  0  0  0
 24 47  1  0  0  0  0
 25 27  1  0  0  0  0
 25 48  1  0  0  0  0
 26 28  2  0  0  0  0
 26 49  1  0  0  0  0
 27 50  1  0  0  0  0
 28 51  1  0  0  0  0
M  END
> <PUBCHEM_COMPOUND_CID>
11667893

> <PUBCHEM_COMPOUND_CANONICALIZED>
1

> <PUBCHEM_CACTVS_COMPLEXITY>
533

> <PUBCHEM_CACTVS_HBOND_ACCEPTOR>
5

> <PUBCHEM_CACTVS_HBOND_DONOR>
3

> <PUBCHEM_CACTVS_ROTATABLE_BOND>
5

> <PUBCHEM_CACTVS_SUBSKEYS>
AAADceB7oAAAAAAAAAAAAAAAAAAAAWAAAAA8WIAAAAAAAFgB8AAAHgAQAAAADgjBmgQ/8JLIEACoAjd3dACCgCk1AiAJ2KE4ZNiIIPrA3dGEIYholALIyecYgcAPiAAAAAQCAAAQAAAACAQAAAAAAAAAAA==

> <PUBCHEM_IUPAC_OPENEYE_NAME>
N-(3,3-dimethylindolin-6-yl)-2-(4-pyridylmethylamino)pyridine-3-carboxamide

> <PUBCHEM_IUPAC_CAS_NAME>
N-(3,3-dimethyl-1,2-dihydroindol-6-yl)-2-(pyridin-4-ylmethylamino)-3-pyridinecarboxamide

> <PUBCHEM_IUPAC_NAME>
N-(3,3-dimethyl-1,2-dihydroindol-6-yl)-2-(pyridin-4-ylmethylamino)pyridine-3-carboxamide

> <PUBCHEM_IUPAC_SYSTEMATIC_NAME>
N-(3,3-dimethyl-1,2-dihydroindol-6-yl)-2-(pyridin-4-ylmethylamino)pyridine-3-carboxamide

> <PUBCHEM_IUPAC_TRADITIONAL_NAME>
N-(3,3-dimethylindolin-6-yl)-2-(4-pyridylmethylamino)nicotinamide

> <PUBCHEM_IUPAC_INCHI>
InChI=1S/C22H23N5O/c1-22(2)14-26-19-12-16(5-6-18(19)22)27-21(28)17-4-3-9-24-20(17)25-13-15-7-10-23-11-8-15/h3-12,26H,13-14H2,1-2H3,(H,24,25)(H,27,28)

> <PUBCHEM_IUPAC_INCHIKEY>
RAHBGWKEPAQNFF-UHFFFAOYSA-N

> <PUBCHEM_XLOGP3_AA>
3.9

> <PUBCHEM_EXACT_MASS>
373.19

> <PUBCHEM_MOLECULAR_FORMULA>
C22H23N5O

> <PUBCHEM_MOLECULAR_WEIGHT>
373.46

> <PUBCHEM_OPENEYE_CAN_SMILES>
CC1(CNC2=C1C=CC(=C2)NC(=O)C3=C(N=CC=C3)NCC4=CC=NC=C4)C

> <PUBCHEM_OPENEYE_ISO_SMILES>
CC1(CNC2=C1C=CC(=C2)NC(=O)C3=C(N=CC=C3)NCC4=CC=NC=C4)C

> <PUBCHEM_CACTVS_TPSA>
78.9

> <PUBCHEM_MONOISOTOPIC_WEIGHT>
373.19

> <PUBCHEM_TOTAL_CHARGE>
0

> <PUBCHEM_HEAVY_ATOM_COUNT>
28

> <PUBCHEM_ATOM_DEF_STEREO_COUNT>
0

> <PUBCHEM_ATOM_UDEF_STEREO_COUNT>
0

> <PUBCHEM_BOND_DEF_STEREO_COUNT>
0

> <PUBCHEM_BOND_UDEF_STEREO_COUNT>
0

> <PUBCHEM_ISOTOPIC_ATOM_COUNT>
0

> <PUBCHEM_COMPONENT_COUNT>
1

> <PUBCHEM_CACTVS_TAUTO_COUNT>
7

> <PUBCHEM_COORDINATE_TYPE>
1
5
255

> <PUBCHEM_BONDANNOTATIONS>
10  14  8
13  16  8
14  15  8
15  16  8
18  19  8
18  20  8
20  23  8
22  25  8
22  26  8
23  24  8
25  27  8
26  28  8
5  19  8
5  24  8
6  27  8
6  28  8
9  10  8
9  13  8

$$$$
10138259
  -OEChem-11021605012D

 59 62  0     1  0  0  0  0  0999 V2000
    2.0000   -0.8566    0.0000 F   0  0  0  0  0  0  0  0  0  0  0  0
   15.1363    2.0894    0.0000 O   0  0  0  0  0  0  0  0  0  0  0  0
   11.8399    1.0247    0.0000 O   0  0  0  0  0  0  0  0  0  0  0  0
    8.5992    2.6051    0.0000 O   0  0  0  0  0  0  0  0  0  0  0  0
    7.1279   -1.8566    0.0000 O   0  0  0  0  0  0  0  0  0  0  0  0
   13.1807    2.5086    0.0000 N   0  0  0  0  0  0  0  0  0  0  0  0
    9.8843    1.4439    0.0000 N   0  0  0  0  0  0  0  0  0  0  0  0
    7.5754   -0.5655    0.0000 N   0  0  0  0  0  0  0  0  0  0  0  0
    5.5443   -2.6613    0.0000 N   0  0  0  0  0  0  0  0  0  0  0  0
   12.2029    2.7182    0.0000 C   0  0  0  0  0  0  0  0  0  0  0  0
   13.4881    1.5570    0.0000 C   0  0  0  0  0  0  0  0  0  0  0  0
   13.8511    3.2506    0.0000 C   0  0  0  0  0  0  0  0  0  0  0  0
   11.5325    1.9763    0.0000 C   0  0  2  0  0  0  0  0  0  0  0  0
   14.8289    3.0410    0.0000 C   0  0  0  0  0  0  0  0  0  0  0  0
   14.4659    1.3474    0.0000 C   0  0  0  0  0  0  0  0  0  0  0  0
   10.5547    2.1859    0.0000 C   0  0  0  0  0  0  0  0  0  0  0  0
    8.2361    0.9115    0.0000 C   0  0  0  0  0  0  0  0  0  0  0  0
    7.2418    1.0177    0.0000 C   0  0  0  0  0  0  0  0  0  0  0  0
    6.8335    0.1049    0.0000 C   0  0  0  0  0  0  0  0  0  0  0  0
    8.4423   -0.0670    0.0000 C   0  0  0  0  0  0  0  0  0  0  0  0
    8.9065    1.6535    0.0000 C   0  0  0  0  0  0  0  0  0  0  0  0
    5.8550   -0.1013    0.0000 C   0  0  0  0  0  0  0  0  0  0  0  0
    5.5443   -1.0518    0.0000 C   0  0  0  0  0  0  0  0  0  0  0  0
    4.5981   -1.3566    0.0000 C   0  0  0  0  0  0  0  0  0  0  0  0
    6.7433    1.8846    0.0000 C   0  0  0  0  0  0  0  0  0  0  0  0
    9.3552   -0.4753    0.0000 C   0  0  0  0  0  0  0  0  0  0  0  0
    4.5981   -2.3566    0.0000 C   0  0  0  0  0  0  0  0  0  0  0  0
    6.1279   -1.8566    0.0000 C   0  0  0  0  0  0  0  0  0  0  0  0
    3.7320   -0.8566    0.0000 C   0  0  0  0  0  0  0  0  0  0  0  0
    3.7320   -2.8566    0.0000 C   0  0  0  0  0  0  0  0  0  0  0  0
    2.8660   -1.3566    0.0000 C   0  0  0  0  0  0  0  0  0  0  0  0
    2.8660   -2.3566    0.0000 C   0  0  0  0  0  0  0  0  0  0  0  0
   12.4362    3.2927    0.0000 H   0  0  0  0  0  0  0  0  0  0  0  0
   11.6777    3.0477    0.0000 H   0  0  0  0  0  0  0  0  0  0  0  0
   12.8740    1.4718    0.0000 H   0  0  0  0  0  0  0  0  0  0  0  0
   13.4654    0.9375    0.0000 H   0  0  0  0  0  0  0  0  0  0  0  0
   14.0844    3.8251    0.0000 H   0  0  0  0  0  0  0  0  0  0  0  0
   13.3259    3.5801    0.0000 H   0  0  0  0  0  0  0  0  0  0  0  0
   11.1169    1.5162    0.0000 H   0  0  0  0  0  0  0  0  0  0  0  0
   14.2326    0.7730    0.0000 H   0  0  0  0  0  0  0  0  0  0  0  0
   14.9911    1.0180    0.0000 H   0  0  0  0  0  0  0  0  0  0  0  0
   15.4430    3.1263    0.0000 H   0  0  0  0  0  0  0  0  0  0  0  0
   14.8516    3.6606    0.0000 H   0  0  0  0  0  0  0  0  0  0  0  0
   10.7880    2.7603    0.0000 H   0  0  0  0  0  0  0  0  0  0  0  0
   10.0295    2.5153    0.0000 H   0  0  0  0  0  0  0  0  0  0  0  0
   10.0749    0.8539    0.0000 H   0  0  0  0  0  0  0  0  0  0  0  0
    7.5096   -1.1820    0.0000 H   0  0  0  0  0  0  0  0  0  0  0  0
   11.4242    0.5646    0.0000 H   0  0  0  0  0  0  0  0  0  0  0  0
    5.4409    0.3602    0.0000 H   0  0  0  0  0  0  0  0  0  0  0  0
    7.2808    2.1937    0.0000 H   0  0  0  0  0  0  0  0  0  0  0  0
    6.4342    2.4221    0.0000 H   0  0  0  0  0  0  0  0  0  0  0  0
    6.2058    1.5756    0.0000 H   0  0  0  0  0  0  0  0  0  0  0  0
    9.1020   -1.0413    0.0000 H   0  0  0  0  0  0  0  0  0  0  0  0
    9.9211   -0.7285    0.0000 H   0  0  0  0  0  0  0  0  0  0  0  0
    9.6083    0.0906    0.0000 H   0  0  0  0  0  0  0  0  0  0  0  0
    5.7369   -3.2506    0.0000 H   0  0  0  0  0  0  0  0  0  0  0  0
    3.7320   -0.2366    0.0000 H   0  0  0  0  0  0  0  0  0  0  0  0
    3.7320   -3.4766    0.0000 H   0  0  0  0  0  0  0  0  0  0  0  0
    2.3291   -2.6666    0.0000 H   0  0  0  0  0  0  0  0  0  0  0  0
  1 31  1  0  0  0  0
  2 14  1  0  0  0  0
  2 15  1  0  0  0  0
 13  3  1  1  0  0  0
  3 48  1  0  0  0  0
  4 21  2  0  0  0  0
  5 28  2  0  0  0  0
  6 10  1  0  0  0  0
  6 11  1  0  0  0  0
  6 12  1  0  0  0  0
  7 16  1  0  0  0  0
  7 21  1  0  0  0  0
  7 46  1  0  0  0  0
  8 19  1  0  0  0  0
  8 20  1  0  0  0  0
  8 47  1  0  0  0  0
  9 27  1  0  0  0  0
  9 28  1  0  0  0  0
  9 56  1  0  0  0  0
 10 13  1  0  0  0  0
 10 33  1  0  0  0  0
 10 34  1  0  0  0  0
 11 15  1  0  0  0  0
 11 35  1  0  0  0  0
 11 36  1  0  0  0  0
 12 14  1  0  0  0  0
 12 37  1  0  0  0  0
 12 38  1  0  0  0  0
 13 16  1  0  0  0  0
 13 39  1  0  0  0  0
 14 42  1  0  0  0  0
 14 43  1  0  0  0  0
 15 40  1  0  0  0  0
 15 41  1  0  0  0  0
 16 44  1  0  0  0  0
 16 45  1  0  0  0  0
 17 18  1  0  0  0  0
 17 20  2  0  0  0  0
 17 21  1  0  0  0  0
 18 19  2  0  0  0  0
 18 25  1  0  0  0  0
 19 22  1  0  0  0  0
 20 26  1  0  0  0  0
 22 23  2  0  0  0  0
 22 49  1  0  0  0  0
 23 24  1  0  0  0  0
 23 28  1  0  0  0  0
 24 27  2  0  0  0  0
 24 29  1  0  0  0  0
 25 50  1  0  0  0  0
 25 51  1  0  0  0  0
 25 52  1  0  0  0  0
 26 53  1  0  0  0  0
 26 54  1  0  0  0  0
 26 55  1  0  0  0  0
 27 30  1  0  0  0  0
 29 31  2  0  0  0  0
 29 57  1  0  0  0  0
 30 32  2  0  0  0  0
 30 58  1  0  0  0  0
 31 32  1  0  0  0  0
 32 59  1  0  0  0  0
M  END
> <PUBCHEM_COMPOUND_CID>
10138259

> <PUBCHEM_COMPOUND_CANONICALIZED>
1

> <PUBCHEM_CACTVS_COMPLEXITY>
729

> <PUBCHEM_CACTVS_HBOND_ACCEPTOR>
6

> <PUBCHEM_CACTVS_HBOND_DONOR>
4

> <PUBCHEM_CACTVS_ROTATABLE_BOND>
6

> <PUBCHEM_CACTVS_SUBSKEYS>
AAADceB7uQAAAAAAAAAAAAAAAAAAAWLAAAA8QAAAAAAAAFgBwAAAHwAQCAAADBzhng4ywJPJlgCoAyVyVACCgCAlAiAImaE4ZNgKMHrA1ZGHIYhglgDYyccciICOgAAAAAACAAAAAAAAAAQAAAAAAAAAAA==

> <PUBCHEM_IUPAC_OPENEYE_NAME>
5-[(Z)-(5-fluoro-2-oxo-indolin-3-ylidene)methyl]-N-[(2S)-2-hydroxy-3-morpholino-propyl]-2,4-dimethyl-1H-pyrrole-3-carboxamide

> <PUBCHEM_IUPAC_CAS_NAME>
5-[(Z)-(5-fluoro-2-oxo-1H-indol-3-ylidene)methyl]-N-[(2S)-2-hydroxy-3-(4-morpholinyl)propyl]-2,4-dimethyl-1H-pyrrole-3-carboxamide

> <PUBCHEM_IUPAC_NAME>
5-[(Z)-(5-fluoro-2-oxo-1H-indol-3-ylidene)methyl]-N-[(2S)-2-hydroxy-3-morpholin-4-ylpropyl]-2,4-dimethyl-1H-pyrrole-3-carboxamide

> <PUBCHEM_IUPAC_SYSTEMATIC_NAME>
5-[(Z)-(5-fluoranyl-2-oxidanylidene-1H-indol-3-ylidene)methyl]-2,4-dimethyl-N-[(2S)-3-morpholin-4-yl-2-oxidanyl-propyl]-1H-pyrrole-3-carboxamide

> <PUBCHEM_IUPAC_TRADITIONAL_NAME>
5-[(Z)-(5-fluoro-2-keto-indolin-3-ylidene)methyl]-N-[(2S)-2-hydroxy-3-morpholino-propyl]-2,4-dimethyl-1H-pyrrole-3-carboxamide

> <PUBCHEM_IUPAC_INCHI>
InChI=1S/C23H27FN4O4/c1-13-20(10-18-17-9-15(24)3-4-19(17)27-22(18)30)26-14(2)21(13)23(31)25-11-16(29)12-28-5-7-32-8-6-28/h3-4,9-10,16,26,29H,5-8,11-12H2,1-2H3,(H,25,31)(H,27,30)/b18-10-/t16-/m0/s1

> <PUBCHEM_IUPAC_INCHIKEY>
CTNPALGJUAXMMC-PMFHANACSA-N

> <PUBCHEM_XLOGP3_AA>
0.9

> <PUBCHEM_EXACT_MASS>
442.202

> <PUBCHEM_MOLECULAR_FORMULA>
C23H27FN4O4

> <PUBCHEM_MOLECULAR_WEIGHT>
442.491

> <PUBCHEM_OPENEYE_CAN_SMILES>
CC1=C(NC(=C1C(=O)NCC(CN2CCOCC2)O)C)C=C3C4=C(C=CC(=C4)F)NC3=O

> <PUBCHEM_OPENEYE_ISO_SMILES>
CC1=C(NC(=C1C(=O)NC[C@@H](CN2CCOCC2)O)C)/C=C\3/C4=C(C=CC(=C4)F)NC3=O

> <PUBCHEM_CACTVS_TPSA>
107

> <PUBCHEM_MONOISOTOPIC_WEIGHT>
442.202

> <PUBCHEM_TOTAL_CHARGE>
0

> <PUBCHEM_HEAVY_ATOM_COUNT>
32

> <PUBCHEM_ATOM_DEF_STEREO_COUNT>
1

> <PUBCHEM_ATOM_UDEF_STEREO_COUNT>
0

> <PUBCHEM_BOND_DEF_STEREO_COUNT>
1

> <PUBCHEM_BOND_UDEF_STEREO_COUNT>
0

> <PUBCHEM_ISOTOPIC_ATOM_COUNT>
0

> <PUBCHEM_COMPONENT_COUNT>
1

> <PUBCHEM_CACTVS_TAUTO_COUNT>
53

> <PUBCHEM_COORDINATE_TYPE>
1
5
255

> <PUBCHEM_BONDANNOTATIONS>
17  18  8
17  20  8
18  19  8
24  27  8
24  29  8
27  30  8
29  31  8
13  3  5
30  32  8
31  32  8
8  19  8
8  20  8

$$$$
11409972
  -OEChem-11021605012D

 68 71  0     0  0  0  0  0  0999 V2000
    8.0622    5.7500    0.0000 F   0  0  0  0  0  0  0  0  0  0  0  0
    9.0622    4.7500    0.0000 F   0  0  0  0  0  0  0  0  0  0  0  0
    7.0622    4.7500    0.0000 F   0  0  0  0  0  0  0  0  0  0  0  0
    8.9282    0.2500    0.0000 O   0  0  0  0  0  0  0  0  0  0  0  0
   10.6603   -3.7500    0.0000 O   0  0  0  0  0  0  0  0  0  0  0  0
    5.4641    3.2500    0.0000 N   0  0  0  0  0  0  0  0  0  0  0  0
    3.7320    2.2500    0.0000 N   0  0  0  0  0  0  0  0  0  0  0  0
    9.7942    1.7500    0.0000 N   0  0  0  0  0  0  0  0  0  0  0  0
   10.6603    0.2500    0.0000 N   0  0  0  0  0  0  0  0  0  0  0  0
   11.5263   -5.2500    0.0000 N   0  0  0  0  0  0  0  0  0  0  0  0
   14.1244   -3.7500    0.0000 N   0  0  0  0  0  0  0  0  0  0  0  0
   13.2583   -5.2500    0.0000 N   0  0  0  0  0  0  0  0  0  0  0  0
    5.4641    2.2500    0.0000 C   0  0  0  0  0  0  0  0  0  0  0  0
    4.5981    3.7500    0.0000 C   0  0  0  0  0  0  0  0  0  0  0  0
    4.5981    1.7500    0.0000 C   0  0  0  0  0  0  0  0  0  0  0  0
    3.7320    3.2500    0.0000 C   0  0  0  0  0  0  0  0  0  0  0  0
    6.3301    3.7500    0.0000 C   0  0  0  0  0  0  0  0  0  0  0  0
    2.8660    1.7500    0.0000 C   0  0  0  0  0  0  0  0  0  0  0  0
    7.1962    3.2500    0.0000 C   0  0  0  0  0  0  0  0  0  0  0  0
    2.0000    2.2500    0.0000 C   0  0  0  0  0  0  0  0  0  0  0  0
    8.0622    3.7500    0.0000 C   0  0  0  0  0  0  0  0  0  0  0  0
    7.1962    2.2500    0.0000 C   0  0  0  0  0  0  0  0  0  0  0  0
    8.9282    3.2500    0.0000 C   0  0  0  0  0  0  0  0  0  0  0  0
    8.0622    1.7500    0.0000 C   0  0  0  0  0  0  0  0  0  0  0  0
    8.0622    4.7500    0.0000 C   0  0  0  0  0  0  0  0  0  0  0  0
    8.9282    2.2500    0.0000 C   0  0  0  0  0  0  0  0  0  0  0  0
    9.7942    0.7500    0.0000 C   0  0  0  0  0  0  0  0  0  0  0  0
   10.6603   -0.7500    0.0000 C   0  0  0  0  0  0  0  0  0  0  0  0
   11.5263   -1.2500    0.0000 C   0  0  0  0  0  0  0  0  0  0  0  0
    9.7942   -1.2500    0.0000 C   0  0  0  0  0  0  0  0  0  0  0  0
   11.5263   -2.2500    0.0000 C   0  0  0  0  0  0  0  0  0  0  0  0
    9.7942   -2.2500    0.0000 C   0  0  0  0  0  0  0  0  0  0  0  0
   10.6603   -2.7500    0.0000 C   0  0  0  0  0  0  0  0  0  0  0  0
   11.5263   -4.2500    0.0000 C   0  0  0  0  0  0  0  0  0  0  0  0
   12.3923   -3.7500    0.0000 C   0  0  0  0  0  0  0  0  0  0  0  0
   13.2583   -4.2500    0.0000 C   0  0  0  0  0  0  0  0  0  0  0  0
   12.3923   -5.7500    0.0000 C   0  0  0  0  0  0  0  0  0  0  0  0
   14.9904   -4.2500    0.0000 C   0  0  0  0  0  0  0  0  0  0  0  0
    5.6762    1.6674    0.0000 H   0  0  0  0  0  0  0  0  0  0  0  0
    6.0747    2.3577    0.0000 H   0  0  0  0  0  0  0  0  0  0  0  0
    4.9966    4.2250    0.0000 H   0  0  0  0  0  0  0  0  0  0  0  0
    4.1996    4.2250    0.0000 H   0  0  0  0  0  0  0  0  0  0  0  0
    3.5200    3.8326    0.0000 H   0  0  0  0  0  0  0  0  0  0  0  0
    3.1215    3.1423    0.0000 H   0  0  0  0  0  0  0  0  0  0  0  0
    4.1996    1.2750    0.0000 H   0  0  0  0  0  0  0  0  0  0  0  0
    4.9966    1.2750    0.0000 H   0  0  0  0  0  0  0  0  0  0  0  0
    6.7287    4.2250    0.0000 H   0  0  0  0  0  0  0  0  0  0  0  0
    5.9316    4.2250    0.0000 H   0  0  0  0  0  0  0  0  0  0  0  0
    2.4675    1.2750    0.0000 H   0  0  0  0  0  0  0  0  0  0  0  0
    3.2646    1.2750    0.0000 H   0  0  0  0  0  0  0  0  0  0  0  0
    2.3100    2.7869    0.0000 H   0  0  0  0  0  0  0  0  0  0  0  0
    1.4631    2.5600    0.0000 H   0  0  0  0  0  0  0  0  0  0  0  0
    1.6900    1.7131    0.0000 H   0  0  0  0  0  0  0  0  0  0  0  0
    6.6592    1.9400    0.0000 H   0  0  0  0  0  0  0  0  0  0  0  0
    9.4651    3.5600    0.0000 H   0  0  0  0  0  0  0  0  0  0  0  0
    8.0622    1.1300    0.0000 H   0  0  0  0  0  0  0  0  0  0  0  0
   10.3312    2.0600    0.0000 H   0  0  0  0  0  0  0  0  0  0  0  0
   11.1972    0.5600    0.0000 H   0  0  0  0  0  0  0  0  0  0  0  0
   12.0632   -0.9400    0.0000 H   0  0  0  0  0  0  0  0  0  0  0  0
    9.2573   -0.9400    0.0000 H   0  0  0  0  0  0  0  0  0  0  0  0
   12.0632   -2.5600    0.0000 H   0  0  0  0  0  0  0  0  0  0  0  0
    9.2573   -2.5600    0.0000 H   0  0  0  0  0  0  0  0  0  0  0  0
   12.3923   -3.1300    0.0000 H   0  0  0  0  0  0  0  0  0  0  0  0
   14.1244   -3.1300    0.0000 H   0  0  0  0  0  0  0  0  0  0  0  0
   12.3923   -6.3700    0.0000 H   0  0  0  0  0  0  0  0  0  0  0  0
   14.6804   -4.7869    0.0000 H   0  0  0  0  0  0  0  0  0  0  0  0
   15.5273   -4.5600    0.0000 H   0  0  0  0  0  0  0  0  0  0  0  0
   15.3004   -3.7131    0.0000 H   0  0  0  0  0  0  0  0  0  0  0  0
  1 25  1  0  0  0  0
  2 25  1  0  0  0  0
  3 25  1  0  0  0  0
  4 27  2  0  0  0  0
  5 33  1  0  0  0  0
  5 34  1  0  0  0  0
  6 13  1  0  0  0  0
  6 14  1  0  0  0  0
  6 17  1  0  0  0  0
  7 15  1  0  0  0  0
  7 16  1  0  0  0  0
  7 18  1  0  0  0  0
  8 26  1  0  0  0  0
  8 27  1  0  0  0  0
  8 57  1  0  0  0  0
  9 27  1  0  0  0  0
  9 28  1  0  0  0  0
  9 58  1  0  0  0  0
 10 34  2  0  0  0  0
 10 37  1  0  0  0  0
 11 36  1  0  0  0  0
 11 38  1  0  0  0  0
 11 64  1  0  0  0  0
 12 36  1  0  0  0  0
 12 37  2  0  0  0  0
 13 15  1  0  0  0  0
 13 39  1  0  0  0  0
 13 40  1  0  0  0  0
 14 16  1  0  0  0  0
 14 41  1  0  0  0  0
 14 42  1  0  0  0  0
 15 45  1  0  0  0  0
 15 46  1  0  0  0  0
 16 43  1  0  0  0  0
 16 44  1  0  0  0  0
 17 19  1  0  0  0  0
 17 47  1  0  0  0  0
 17 48  1  0  0  0  0
 18 20  1  0  0  0  0
 18 49  1  0  0  0  0
 18 50  1  0  0  0  0
 19 21  2  0  0  0  0
 19 22  1  0  0  0  0
 20 51  1  0  0  0  0
 20 52  1  0  0  0  0
 20 53  1  0  0  0  0
 21 23  1  0  0  0  0
 21 25  1  0  0  0  0
 22 24  2  0  0  0  0
 22 54  1  0  0  0  0
 23 26  2  0  0  0  0
 23 55  1  0  0  0  0
 24 26  1  0  0  0  0
 24 56  1  0  0  0  0
 28 29  2  0  0  0  0
 28 30  1  0  0  0  0
 29 31  1  0  0  0  0
 29 59  1  0  0  0  0
 30 32  2  0  0  0  0
 30 60  1  0  0  0  0
 31 33  2  0  0  0  0
 31 61  1  0  0  0  0
 32 33  1  0  0  0  0
 32 62  1  0  0  0  0
 34 35  1  0  0  0  0
 35 36  2  0  0  0  0
 35 63  1  0  0  0  0
 37 65  1  0  0  0  0
 38 66  1  0  0  0  0
 38 67  1  0  0  0  0
 38 68  1  0  0  0  0
M  END
> <PUBCHEM_COMPOUND_CID>
11409972

> <PUBCHEM_COMPOUND_CANONICALIZED>
1

> <PUBCHEM_CACTVS_COMPLEXITY>
730

> <PUBCHEM_CACTVS_HBOND_ACCEPTOR>
10

> <PUBCHEM_CACTVS_HBOND_DONOR>
3

> <PUBCHEM_CACTVS_ROTATABLE_BOND>
8

> <PUBCHEM_CACTVS_SUBSKEYS>
AAADceB7sYAAAAAAAAAAAAAAAAAAAAAAAAA8eIEAAAAAAAAB0AAAHwAQAAAADAzBmhQ39pfIFACoAiZjdACCiCkxIqAJ2KA+bJiMbiLE+duePCju1BvI6CewwIAOiEAAQAAQAAAQgACAACAAAAAAAAAAAA==

> <PUBCHEM_IUPAC_OPENEYE_NAME>
1-[4-[(4-ethylpiperazin-1-yl)methyl]-3-(trifluoromethyl)phenyl]-3-[4-[6-(methylamino)pyrimidin-4-yl]oxyphenyl]urea

> <PUBCHEM_IUPAC_CAS_NAME>
1-[4-[(4-ethyl-1-piperazinyl)methyl]-3-(trifluoromethyl)phenyl]-3-[4-[[6-(methylamino)-4-pyrimidinyl]oxy]phenyl]urea

> <PUBCHEM_IUPAC_NAME>
1-[4-[(4-ethylpiperazin-1-yl)methyl]-3-(trifluoromethyl)phenyl]-3-[4-[6-(methylamino)pyrimidin-4-yl]oxyphenyl]urea

> <PUBCHEM_IUPAC_SYSTEMATIC_NAME>
1-[4-[(4-ethylpiperazin-1-yl)methyl]-3-(trifluoromethyl)phenyl]-3-[4-[6-(methylamino)pyrimidin-4-yl]oxyphenyl]urea

> <PUBCHEM_IUPAC_TRADITIONAL_NAME>
1-[4-[(4-ethylpiperazino)methyl]-3-(trifluoromethyl)phenyl]-3-[4-[6-(methylamino)pyrimidin-4-yl]oxyphenyl]urea

> <PUBCHEM_IUPAC_INCHI>
InChI=1S/C26H30F3N7O2/c1-3-35-10-12-36(13-11-35)16-18-4-5-20(14-22(18)26(27,28)29)34-25(37)33-19-6-8-21(9-7-19)38-24-15-23(30-2)31-17-32-24/h4-9,14-15,17H,3,10-13,16H2,1-2H3,(H,30,31,32)(H2,33,34,37)

> <PUBCHEM_IUPAC_INCHIKEY>
ODPGGGTTYSGTGO-UHFFFAOYSA-N

> <PUBCHEM_XLOGP3_AA>
3.8

> <PUBCHEM_EXACT_MASS>
529.241

> <PUBCHEM_MOLECULAR_FORMULA>
C26H30F3N7O2

> <PUBCHEM_MOLECULAR_WEIGHT>
529.568

> <PUBCHEM_OPENEYE_CAN_SMILES>
CCN1CCN(CC1)CC2=C(C=C(C=C2)NC(=O)NC3=CC=C(C=C3)OC4=NC=NC(=C4)NC)C(F)(F)F

> <PUBCHEM_OPENEYE_ISO_SMILES>
CCN1CCN(CC1)CC2=C(C=C(C=C2)NC(=O)NC3=CC=C(C=C3)OC4=NC=NC(=C4)NC)C(F)(F)F

> <PUBCHEM_CACTVS_TPSA>
94.6

> <PUBCHEM_MONOISOTOPIC_WEIGHT>
529.241

> <PUBCHEM_TOTAL_CHARGE>
0

> <PUBCHEM_HEAVY_ATOM_COUNT>
38

> <PUBCHEM_ATOM_DEF_STEREO_COUNT>
0

> <PUBCHEM_ATOM_UDEF_STEREO_COUNT>
0

> <PUBCHEM_BOND_DEF_STEREO_COUNT>
0

> <PUBCHEM_BOND_UDEF_STEREO_COUNT>
0

> <PUBCHEM_ISOTOPIC_ATOM_COUNT>
0

> <PUBCHEM_COMPONENT_COUNT>
1

> <PUBCHEM_CACTVS_TAUTO_COUNT>
9

> <PUBCHEM_COORDINATE_TYPE>
1
5
255

> <PUBCHEM_BONDANNOTATIONS>
10  34  8
10  37  8
12  36  8
12  37  8
19  21  8
19  22  8
21  23  8
22  24  8
23  26  8
24  26  8
28  29  8
28  30  8
29  31  8
30  32  8
31  33  8
32  33  8
34  35  8
35  36  8

$$$$
9926791
  -OEChem-11021605012D

 43 45  0     1  0  0  0  0  0999 V2000
    4.5981   -0.3030    0.0000 O   0  0  0  0  0  0  0  0  0  0  0  0
    5.4641    1.1970    0.0000 N   0  0  0  0  0  0  0  0  0  0  0  0
    8.0622    0.6970    0.0000 N   0  0  0  0  0  0  0  0  0  0  0  0
    7.1962   -0.8030    0.0000 N   0  0  0  0  0  0  0  0  0  0  0  0
    9.8744   -2.1077    0.0000 N   0  0  0  0  0  0  0  0  0  0  0  0
    8.0622   -2.3030    0.0000 N   0  0  0  0  0  0  0  0  0  0  0  0
    2.0000    0.1970    0.0000 N   0  0  0  0  0  0  0  0  0  0  0  0
    7.1962    1.1970    0.0000 C   0  0  2  0  0  0  0  0  0  0  0  0
    7.1962    2.1970    0.0000 C   0  0  1  0  0  0  0  0  0  0  0  0
    6.3301    2.6970    0.0000 C   0  0  0  0  0  0  0  0  0  0  0  0
    6.3301    0.6970    0.0000 C   0  0  0  0  0  0  0  0  0  0  0  0
    5.4641    2.1970    0.0000 C   0  0  0  0  0  0  0  0  0  0  0  0
    8.0622    2.6970    0.0000 C   0  0  0  0  0  0  0  0  0  0  0  0
    8.0622   -0.3030    0.0000 C   0  0  0  0  0  0  0  0  0  0  0  0
    4.5981    0.6970    0.0000 C   0  0  0  0  0  0  0  0  0  0  0  0
    8.9282    1.1970    0.0000 C   0  0  0  0  0  0  0  0  0  0  0  0
    8.9282   -0.8030    0.0000 C   0  0  0  0  0  0  0  0  0  0  0  0
    3.7320    1.1970    0.0000 C   0  0  0  0  0  0  0  0  0  0  0  0
    8.9282   -1.8030    0.0000 C   0  0  0  0  0  0  0  0  0  0  0  0
    9.8744   -0.4982    0.0000 C   0  0  0  0  0  0  0  0  0  0  0  0
    7.1962   -1.8030    0.0000 C   0  0  0  0  0  0  0  0  0  0  0  0
   10.4580   -1.3030    0.0000 C   0  0  0  0  0  0  0  0  0  0  0  0
    2.8660    0.6970    0.0000 C   0  0  0  0  0  0  0  0  0  0  0  0
    7.7331    1.5070    0.0000 H   0  0  0  0  0  0  0  0  0  0  0  0
    7.7331    1.8870    0.0000 H   0  0  0  0  0  0  0  0  0  0  0  0
    6.7287    3.1720    0.0000 H   0  0  0  0  0  0  0  0  0  0  0  0
    5.9316    3.1720    0.0000 H   0  0  0  0  0  0  0  0  0  0  0  0
    5.9316    0.2221    0.0000 H   0  0  0  0  0  0  0  0  0  0  0  0
    6.7287    0.2221    0.0000 H   0  0  0  0  0  0  0  0  0  0  0  0
    5.2520    2.7796    0.0000 H   0  0  0  0  0  0  0  0  0  0  0  0
    4.8535    2.0894    0.0000 H   0  0  0  0  0  0  0  0  0  0  0  0
    8.3722    2.1601    0.0000 H   0  0  0  0  0  0  0  0  0  0  0  0
    8.5991    3.0070    0.0000 H   0  0  0  0  0  0  0  0  0  0  0  0
    7.7522    3.2340    0.0000 H   0  0  0  0  0  0  0  0  0  0  0  0
    9.2382    0.6601    0.0000 H   0  0  0  0  0  0  0  0  0  0  0  0
    9.4651    1.5070    0.0000 H   0  0  0  0  0  0  0  0  0  0  0  0
    8.6182    1.7340    0.0000 H   0  0  0  0  0  0  0  0  0  0  0  0
    4.1306    1.6720    0.0000 H   0  0  0  0  0  0  0  0  0  0  0  0
    3.3335    1.6720    0.0000 H   0  0  0  0  0  0  0  0  0  0  0  0
   10.0670    0.0911    0.0000 H   0  0  0  0  0  0  0  0  0  0  0  0
   10.0670   -2.6970    0.0000 H   0  0  0  0  0  0  0  0  0  0  0  0
    6.6592   -2.1130    0.0000 H   0  0  0  0  0  0  0  0  0  0  0  0
   11.0780   -1.3030    0.0000 H   0  0  0  0  0  0  0  0  0  0  0  0
  1 15  2  0  0  0  0
  2 11  1  0  0  0  0
  2 12  1  0  0  0  0
  2 15  1  0  0  0  0
  8  3  1  1  0  0  0
  3 14  1  0  0  0  0
  3 16  1  0  0  0  0
  4 14  2  0  0  0  0
  4 21  1  0  0  0  0
  5 19  1  0  0  0  0
  5 22  1  0  0  0  0
  5 41  1  0  0  0  0
  6 19  1  0  0  0  0
  6 21  2  0  0  0  0
  7 23  3  0  0  0  0
  8  9  1  0  0  0  0
  8 11  1  0  0  0  0
  8 24  1  0  0  0  0
  9 10  1  0  0  0  0
  9 13  1  1  0  0  0
  9 25  1  0  0  0  0
 10 12  1  0  0  0  0
 10 26  1  0  0  0  0
 10 27  1  0  0  0  0
 11 28  1  0  0  0  0
 11 29  1  0  0  0  0
 12 30  1  0  0  0  0
 12 31  1  0  0  0  0
 13 32  1  0  0  0  0
 13 33  1  0  0  0  0
 13 34  1  0  0  0  0
 14 17  1  0  0  0  0
 15 18  1  0  0  0  0
 16 35  1  0  0  0  0
 16 36  1  0  0  0  0
 16 37  1  0  0  0  0
 17 19  2  0  0  0  0
 17 20  1  0  0  0  0
 18 23  1  0  0  0  0
 18 38  1  0  0  0  0
 18 39  1  0  0  0  0
 20 22  2  0  0  0  0
 20 40  1  0  0  0  0
 21 42  1  0  0  0  0
 22 43  1  0  0  0  0
M  END
> <PUBCHEM_COMPOUND_CID>
9926791

> <PUBCHEM_COMPOUND_CANONICALIZED>
1

> <PUBCHEM_CACTVS_COMPLEXITY>
488

> <PUBCHEM_CACTVS_HBOND_ACCEPTOR>
5

> <PUBCHEM_CACTVS_HBOND_DONOR>
1

> <PUBCHEM_CACTVS_ROTATABLE_BOND>
3

> <PUBCHEM_CACTVS_SUBSKEYS>
AAADceB7oAAAAAAAAAAAAAAAAAAAAWAAAAAsWAAAAAAAAFgB+AAAHgAQAAAADSjBmwQ/sN/JkAC4BjN3dACCgCmxAqAJ2aE4ZJiI6MJAyMEUBAhIFgLAQCAQAAAKAAAAAAAAAAAAAAAAAAAAAAAAAAAAAA==

> <PUBCHEM_IUPAC_OPENEYE_NAME>
3-[(3R,4R)-4-methyl-3-[methyl(7H-pyrrolo[2,3-d]pyrimidin-4-yl)amino]-1-piperidyl]-3-oxo-propanenitrile

> <PUBCHEM_IUPAC_CAS_NAME>
3-[(3R,4R)-4-methyl-3-[methyl(7H-pyrrolo[2,3-d]pyrimidin-4-yl)amino]-1-piperidinyl]-3-oxopropanenitrile

> <PUBCHEM_IUPAC_NAME>
3-[(3R,4R)-4-methyl-3-[methyl(7H-pyrrolo[2,3-d]pyrimidin-4-yl)amino]piperidin-1-yl]-3-oxopropanenitrile

> <PUBCHEM_IUPAC_SYSTEMATIC_NAME>
3-[(3R,4R)-4-methyl-3-[methyl(7H-pyrrolo[2,3-d]pyrimidin-4-yl)amino]piperidin-1-yl]-3-oxidanylidene-propanenitrile

> <PUBCHEM_IUPAC_TRADITIONAL_NAME>
3-keto-3-[(3R,4R)-4-methyl-3-[methyl(7H-pyrrolo[2,3-d]pyrimidin-4-yl)amino]piperidino]propionitrile

> <PUBCHEM_IUPAC_INCHI>
InChI=1S/C16H20N6O/c1-11-5-8-22(14(23)3-6-17)9-13(11)21(2)16-12-4-7-18-15(12)19-10-20-16/h4,7,10-11,13H,3,5,8-9H2,1-2H3,(H,18,19,20)/t11-,13+/m1/s1

> <PUBCHEM_IUPAC_INCHIKEY>
UJLAWZDWDVHWOW-YPMHNXCESA-N

> <PUBCHEM_XLOGP3_AA>
1.5

> <PUBCHEM_EXACT_MASS>
312.17

> <PUBCHEM_MOLECULAR_FORMULA>
C16H20N6O

> <PUBCHEM_MOLECULAR_WEIGHT>
312.377

> <PUBCHEM_OPENEYE_CAN_SMILES>
CC1CCN(CC1N(C)C2=NC=NC3=C2C=CN3)C(=O)CC#N

> <PUBCHEM_OPENEYE_ISO_SMILES>
C[C@@H]1CCN(C[C@@H]1N(C)C2=NC=NC3=C2C=CN3)C(=O)CC#N

> <PUBCHEM_CACTVS_TPSA>
88.9

> <PUBCHEM_MONOISOTOPIC_WEIGHT>
312.17

> <PUBCHEM_TOTAL_CHARGE>
0

> <PUBCHEM_HEAVY_ATOM_COUNT>
23

> <PUBCHEM_ATOM_DEF_STEREO_COUNT>
2

> <PUBCHEM_ATOM_UDEF_STEREO_COUNT>
0

> <PUBCHEM_BOND_DEF_STEREO_COUNT>
0

> <PUBCHEM_BOND_UDEF_STEREO_COUNT>
0

> <PUBCHEM_ISOTOPIC_ATOM_COUNT>
0

> <PUBCHEM_COMPONENT_COUNT>
1

> <PUBCHEM_CACTVS_TAUTO_COUNT>
3

> <PUBCHEM_COORDINATE_TYPE>
1
5
255

> <PUBCHEM_BONDANNOTATIONS>
14  17  8
17  19  8
17  20  8
20  22  8
8  3  5
4  14  8
4  21  8
5  19  8
5  22  8
6  19  8
6  21  8
9  13  5

$$$$
5522952
  -OEChem-11021605012D

 37 40  0     0  0  0  0  0  0999 V2000
    4.6660   -3.5106    0.0000 O   0  0  0  0  0  0  0  0  0  0  0  0
    3.7667    2.0208    0.0000 O   0  0  0  0  0  0  0  0  0  0  0  0
    5.5442    2.0586    0.0000 O   0  0  0  0  0  0  0  0  0  0  0  0
    2.9180    0.5108    0.0000 O   0  0  0  0  0  0  0  0  0  0  0  0
    6.4501    0.5378    0.0000 N   0  0  0  0  0  0  0  0  0  0  0  0
    5.5321   -1.0106    0.0000 C   0  0  0  0  0  0  0  0  0  0  0  0
    4.6660   -0.5106    0.0000 C   0  0  0  0  0  0  0  0  0  0  0  0
    3.8000   -1.0106    0.0000 C   0  0  0  0  0  0  0  0  0  0  0  0
    5.5321   -2.0106    0.0000 C   0  0  0  0  0  0  0  0  0  0  0  0
    6.4421   -0.5038    0.0000 C   0  0  0  0  0  0  0  0  0  0  0  0
    3.8000   -2.0106    0.0000 C   0  0  0  0  0  0  0  0  0  0  0  0
    4.6500    0.5309    0.0000 C   0  0  0  0  0  0  0  0  0  0  0  0
    4.6660   -2.5106    0.0000 C   0  0  0  0  0  0  0  0  0  0  0  0
    5.5480    1.0586    0.0000 C   0  0  0  0  0  0  0  0  0  0  0  0
    6.3903   -2.5076    0.0000 C   0  0  0  0  0  0  0  0  0  0  0  0
    7.2814   -1.0320    0.0000 C   0  0  0  0  0  0  0  0  0  0  0  0
    2.9061   -0.4760    0.0000 C   0  0  0  0  0  0  0  0  0  0  0  0
    2.9061   -2.5453    0.0000 C   0  0  0  0  0  0  0  0  0  0  0  0
    7.2558   -2.0234    0.0000 C   0  0  0  0  0  0  0  0  0  0  0  0
    3.7782    1.0208    0.0000 C   0  0  0  0  0  0  0  0  0  0  0  0
    2.0000   -0.9898    0.0000 C   0  0  0  0  0  0  0  0  0  0  0  0
    2.0000   -2.0314    0.0000 C   0  0  0  0  0  0  0  0  0  0  0  0
    2.8949    2.5107    0.0000 C   0  0  0  0  0  0  0  0  0  0  0  0
    2.8834    3.5106    0.0000 C   0  0  0  0  0  0  0  0  0  0  0  0
    6.9882    0.8457    0.0000 H   0  0  0  0  0  0  0  0  0  0  0  0
    6.3857   -3.1276    0.0000 H   0  0  0  0  0  0  0  0  0  0  0  0
    7.8280   -0.7394    0.0000 H   0  0  0  0  0  0  0  0  0  0  0  0
    2.9132    0.1440    0.0000 H   0  0  0  0  0  0  0  0  0  0  0  0
    2.9132   -3.1653    0.0000 H   0  0  0  0  0  0  0  0  0  0  0  0
    7.7865   -2.3439    0.0000 H   0  0  0  0  0  0  0  0  0  0  0  0
    1.4643   -0.6778    0.0000 H   0  0  0  0  0  0  0  0  0  0  0  0
    1.4643   -2.3435    0.0000 H   0  0  0  0  0  0  0  0  0  0  0  0
    2.2831    2.6113    0.0000 H   0  0  0  0  0  0  0  0  0  0  0  0
    2.6896    1.9257    0.0000 H   0  0  0  0  0  0  0  0  0  0  0  0
    3.5033    3.5178    0.0000 H   0  0  0  0  0  0  0  0  0  0  0  0
    2.8762    4.1306    0.0000 H   0  0  0  0  0  0  0  0  0  0  0  0
    2.2634    3.5035    0.0000 H   0  0  0  0  0  0  0  0  0  0  0  0
  1 13  2  0  0  0  0
  2 20  1  0  0  0  0
  2 23  1  0  0  0  0
  3 14  2  0  0  0  0
  4 20  2  0  0  0  0
  5 10  1  0  0  0  0
  5 14  1  0  0  0  0
  5 25  1  0  0  0  0
  6  7  1  0  0  0  0
  6  9  2  0  0  0  0
  6 10  1  0  0  0  0
  7  8  1  0  0  0  0
  7 12  2  0  0  0  0
  8 11  1  0  0  0  0
  8 17  2  0  0  0  0
  9 13  1  0  0  0  0
  9 15  1  0  0  0  0
 10 16  2  0  0  0  0
 11 13  1  0  0  0  0
 11 18  2  0  0  0  0
 12 14  1  0  0  0  0
 12 20  1  0  0  0  0
 15 19  2  0  0  0  0
 15 26  1  0  0  0  0
 16 19  1  0  0  0  0
 16 27  1  0  0  0  0
 17 21  1  0  0  0  0
 17 28  1  0  0  0  0
 18 22  1  0  0  0  0
 18 29  1  0  0  0  0
 19 30  1  0  0  0  0
 21 22  2  0  0  0  0
 21 31  1  0  0  0  0
 22 32  1  0  0  0  0
 23 24  1  0  0  0  0
 23 33  1  0  0  0  0
 23 34  1  0  0  0  0
 24 35  1  0  0  0  0
 24 36  1  0  0  0  0
 24 37  1  0  0  0  0
M  END
> <PUBCHEM_COMPOUND_CID>
5522952

> <PUBCHEM_COMPOUND_CANONICALIZED>
1

> <PUBCHEM_CACTVS_COMPLEXITY>
623

> <PUBCHEM_CACTVS_HBOND_ACCEPTOR>
4

> <PUBCHEM_CACTVS_HBOND_DONOR>
1

> <PUBCHEM_CACTVS_ROTATABLE_BOND>
3

> <PUBCHEM_CACTVS_SUBSKEYS>
AAADccB6OAAAAAAAAAAAAAAAAAAAAAAAAAAwYMEAAAAAAADBQAAAHgAQAAAADAyhmAIyyILABACIAqXSWACCAAAlAgAIiAEAZMgIJD7ItZGGMQhitADI6YcciMCOgAAAQAASAACAAASAACQAAAAAAAAAAA==

> <PUBCHEM_IUPAC_INCHI>
InChI=1S/C19H13NO4/c1-2-24-19(23)16-15-10-6-3-4-7-11(10)17(21)12-8-5-9-13(14(12)15)20-18(16)22/h3-9H,2H2,1H3,(H,20,22)

> <PUBCHEM_IUPAC_INCHIKEY>
UFJGFNHRMPMALC-UHFFFAOYSA-N

> <PUBCHEM_XLOGP3_AA>
2.5

> <PUBCHEM_EXACT_MASS>
319.084

> <PUBCHEM_MOLECULAR_FORMULA>
C19H13NO4

> <PUBCHEM_MOLECULAR_WEIGHT>
319.316

> <PUBCHEM_OPENEYE_CAN_SMILES>
CCOC(=O)C1=C2C3=CC=CC=C3C(=O)C4=C2C(=CC=C4)NC1=O

> <PUBCHEM_OPENEYE_ISO_SMILES>
CCOC(=O)C1=C2C3=CC=CC=C3C(=O)C4=C2C(=CC=C4)NC1=O

> <PUBCHEM_CACTVS_TPSA>
72.5

> <PUBCHEM_MONOISOTOPIC_WEIGHT>
319.084

> <PUBCHEM_TOTAL_CHARGE>
0

> <PUBCHEM_HEAVY_ATOM_COUNT>
24

> <PUBCHEM_ATOM_DEF_STEREO_COUNT>
0

> <PUBCHEM_ATOM_UDEF_STEREO_COUNT>
0

> <PUBCHEM_BOND_DEF_STEREO_COUNT>
0

> <PUBCHEM_BOND_UDEF_STEREO_COUNT>
0

> <PUBCHEM_ISOTOPIC_ATOM_COUNT>
0

> <PUBCHEM_COMPONENT_COUNT>
1

> <PUBCHEM_CACTVS_TAUTO_COUNT>
5

> <PUBCHEM_COORDINATE_TYPE>
1
5
255

> <PUBCHEM_BONDANNOTATIONS>
10  16  8
11  18  8
12  14  8
15  19  8
16  19  8
17  21  8
18  22  8
21  22  8
5  10  8
5  14  8
6  10  8
6  7  8
6  9  8
7  12  8
8  11  8
8  17  8
9  15  8

$$$$
56665084
  -OEChem-11021605012D

 56 59  0     1  0  0  0  0  0999 V2000
    5.4706    1.2863    0.0000 F   0  0  0  0  0  0  0  0  0  0  0  0
    7.2467   -1.7206    0.0000 O   0  0  0  0  0  0  0  0  0  0  0  0
    2.8828   -1.2021    0.0000 O   0  0  0  0  0  0  0  0  0  0  0  0
    2.8363   -4.1828    0.0000 O   0  0  0  0  0  0  0  0  0  0  0  0
    2.0000   -2.6660    0.0000 O   0  0  0  0  0  0  0  0  0  0  0  0
    5.4546   -2.7552    0.0000 N   0  0  0  0  0  0  0  0  0  0  0  0
    7.2027    0.2863    0.0000 N   0  0  0  0  0  0  0  0  0  0  0  0
    3.7386    0.2863    0.0000 N   0  0  0  0  0  0  0  0  0  0  0  0
    8.0687    2.7863    0.0000 N   0  0  0  0  0  0  0  0  0  0  0  0
    9.8008    2.7863    0.0000 N   0  0  0  0  0  0  0  0  0  0  0  0
    6.3526   -3.2830    0.0000 C   0  0  2  0  0  0  0  0  0  0  0  0
    6.3488   -4.2830    0.0000 C   0  0  0  0  0  0  0  0  0  0  0  0
    7.2547   -2.7622    0.0000 C   0  0  0  0  0  0  0  0  0  0  0  0
    5.4706   -1.7137    0.0000 C   0  0  0  0  0  0  0  0  0  0  0  0
    6.3367   -1.2137    0.0000 C   0  0  0  0  0  0  0  0  0  0  0  0
    4.6046   -1.2137    0.0000 C   0  0  0  0  0  0  0  0  0  0  0  0
    4.5775   -3.2180    0.0000 C   0  0  0  0  0  0  0  0  0  0  0  0
    7.2128   -4.7863    0.0000 C   0  0  0  0  0  0  0  0  0  0  0  0
    5.4808   -4.7796    0.0000 C   0  0  0  0  0  0  0  0  0  0  0  0
    6.3367   -0.2137    0.0000 C   0  0  0  0  0  0  0  0  0  0  0  0
    4.6046   -0.2137    0.0000 C   0  0  0  0  0  0  0  0  0  0  0  0
    3.7317   -2.7001    0.0000 C   0  0  0  0  0  0  0  0  0  0  0  0
    3.7452   -1.7085    0.0000 C   0  0  0  0  0  0  0  0  0  0  0  0
    5.4706    0.2863    0.0000 C   0  0  0  0  0  0  0  0  0  0  0  0
    7.2027    1.2863    0.0000 C   0  0  0  0  0  0  0  0  0  0  0  0
    2.8560   -3.1829    0.0000 C   0  0  0  0  0  0  0  0  0  0  0  0
    8.0687    1.7863    0.0000 C   0  0  0  0  0  0  0  0  0  0  0  0
    8.9347    3.2863    0.0000 C   0  0  0  0  0  0  0  0  0  0  0  0
    8.9347    4.2863    0.0000 C   0  0  0  0  0  0  0  0  0  0  0  0
    9.8008    4.7863    0.0000 C   0  0  0  0  0  0  0  0  0  0  0  0
   10.6668    3.2863    0.0000 C   0  0  0  0  0  0  0  0  0  0  0  0
   10.6668    4.2863    0.0000 C   0  0  0  0  0  0  0  0  0  0  0  0
    6.8890   -3.5940    0.0000 H   0  0  0  0  0  0  0  0  0  0  0  0
    6.8869   -3.9750    0.0000 H   0  0  0  0  0  0  0  0  0  0  0  0
    7.4682   -3.3442    0.0000 H   0  0  0  0  0  0  0  0  0  0  0  0
    7.8647   -2.6514    0.0000 H   0  0  0  0  0  0  0  0  0  0  0  0
    4.5576   -3.8376    0.0000 H   0  0  0  0  0  0  0  0  0  0  0  0
    6.9008   -5.3220    0.0000 H   0  0  0  0  0  0  0  0  0  0  0  0
    5.1729   -4.2415    0.0000 H   0  0  0  0  0  0  0  0  0  0  0  0
    4.9427   -5.0876    0.0000 H   0  0  0  0  0  0  0  0  0  0  0  0
    5.7887   -5.3177    0.0000 H   0  0  0  0  0  0  0  0  0  0  0  0
    7.7486   -5.0984    0.0000 H   0  0  0  0  0  0  0  0  0  0  0  0
    7.5249   -4.2506    0.0000 H   0  0  0  0  0  0  0  0  0  0  0  0
    7.7396   -0.0237    0.0000 H   0  0  0  0  0  0  0  0  0  0  0  0
    6.9906    1.8689    0.0000 H   0  0  0  0  0  0  0  0  0  0  0  0
    6.5921    1.1786    0.0000 H   0  0  0  0  0  0  0  0  0  0  0  0
    3.7386    0.9063    0.0000 H   0  0  0  0  0  0  0  0  0  0  0  0
    3.2016   -0.0237    0.0000 H   0  0  0  0  0  0  0  0  0  0  0  0
    8.2808    1.2037    0.0000 H   0  0  0  0  0  0  0  0  0  0  0  0
    8.6793    1.8940    0.0000 H   0  0  0  0  0  0  0  0  0  0  0  0
    7.5318    3.0963    0.0000 H   0  0  0  0  0  0  0  0  0  0  0  0
    2.2934   -4.4821    0.0000 H   0  0  0  0  0  0  0  0  0  0  0  0
    8.3978    4.5963    0.0000 H   0  0  0  0  0  0  0  0  0  0  0  0
    9.8008    5.4063    0.0000 H   0  0  0  0  0  0  0  0  0  0  0  0
   11.2037    2.9763    0.0000 H   0  0  0  0  0  0  0  0  0  0  0  0
   11.2037    4.5963    0.0000 H   0  0  0  0  0  0  0  0  0  0  0  0
  1 24  1  0  0  0  0
  2 13  1  0  0  0  0
  2 15  1  0  0  0  0
  3 23  2  0  0  0  0
  4 26  1  0  0  0  0
  4 52  1  0  0  0  0
  5 26  2  0  0  0  0
  6 11  1  0  0  0  0
  6 14  1  0  0  0  0
  6 17  1  0  0  0  0
  7 20  1  0  0  0  0
  7 25  1  0  0  0  0
  7 44  1  0  0  0  0
  8 21  1  0  0  0  0
  8 47  1  0  0  0  0
  8 48  1  0  0  0  0
  9 27  1  0  0  0  0
  9 28  1  0  0  0  0
  9 51  1  0  0  0  0
 10 28  1  0  0  0  0
 10 31  2  0  0  0  0
 11 12  1  1  0  0  0
 11 13  1  0  0  0  0
 11 33  1  0  0  0  0
 12 18  1  0  0  0  0
 12 19  1  0  0  0  0
 12 34  1  0  0  0  0
 13 35  1  0  0  0  0
 13 36  1  0  0  0  0
 14 15  2  0  0  0  0
 14 16  1  0  0  0  0
 15 20  1  0  0  0  0
 16 21  2  0  0  0  0
 16 23  1  0  0  0  0
 17 22  2  0  0  0  0
 17 37  1  0  0  0  0
 18 38  1  0  0  0  0
 18 42  1  0  0  0  0
 18 43  1  0  0  0  0
 19 39  1  0  0  0  0
 19 40  1  0  0  0  0
 19 41  1  0  0  0  0
 20 24  2  0  0  0  0
 21 24  1  0  0  0  0
 22 23  1  0  0  0  0
 22 26  1  0  0  0  0
 25 27  1  0  0  0  0
 25 45  1  0  0  0  0
 25 46  1  0  0  0  0
 27 49  1  0  0  0  0
 27 50  1  0  0  0  0
 28 29  2  0  0  0  0
 29 30  1  0  0  0  0
 29 53  1  0  0  0  0
 30 32  2  0  0  0  0
 30 54  1  0  0  0  0
 31 32  1  0  0  0  0
 31 55  1  0  0  0  0
 32 56  1  0  0  0  0
M  END
> <PUBCHEM_COMPOUND_CID>
56665084

> <PUBCHEM_COMPOUND_CANONICALIZED>
1

> <PUBCHEM_CACTVS_COMPLEXITY>
750

> <PUBCHEM_CACTVS_HBOND_ACCEPTOR>
10

> <PUBCHEM_CACTVS_HBOND_DONOR>
4

> <PUBCHEM_CACTVS_ROTATABLE_BOND>
7

> <PUBCHEM_CACTVS_SUBSKEYS>
AAADceB7uQAAAAAAAAAAAAAAAAAAAAAAAAA8WIEAAAAAAACxwAAAHwAQCAAADSzhmg4//pPIFgCoArb3bACCiCk1IiAJ2KE9bNiOZv7M/duXeajs8BPY+ee62bOeCEABAAQCEAAQgAIACAQgAAAAAAAAAA==

> <PUBCHEM_IUPAC_INCHI>
InChI=1S/C22H24FN5O4/c1-11(2)13-10-32-21-18(27-8-7-26-14-5-3-4-6-25-14)16(23)17(24)15-19(21)28(13)9-12(20(15)29)22(30)31/h3-6,9,11,13,27H,7-8,10,24H2,1-2H3,(H,25,26)(H,30,31)/t13-/m0/s1

> <PUBCHEM_IUPAC_INCHIKEY>
ZIRAHAUOVJHDAU-ZDUSSCGKSA-N

> <PUBCHEM_XLOGP3_AA>
3.5

> <PUBCHEM_EXACT_MASS>
441.181

> <PUBCHEM_MOLECULAR_FORMULA>
C22H24FN5O4

> <PUBCHEM_MOLECULAR_WEIGHT>
441.463

> <PUBCHEM_OPENEYE_CAN_SMILES>
CC(C)C1COC2=C(C(=C(C3=C2N1C=C(C3=O)C(=O)O)N)F)NCCNC4=CC=CC=N4

> <PUBCHEM_OPENEYE_ISO_SMILES>
CC(C)[C@@H]1COC2=C(C(=C(C3=C2N1C=C(C3=O)C(=O)O)N)F)NCCNC4=CC=CC=N4

> <PUBCHEM_CACTVS_TPSA>
130

> <PUBCHEM_MONOISOTOPIC_WEIGHT>
441.181

> <PUBCHEM_TOTAL_CHARGE>
0

> <PUBCHEM_HEAVY_ATOM_COUNT>
32

> <PUBCHEM_ATOM_DEF_STEREO_COUNT>
1

> <PUBCHEM_ATOM_UDEF_STEREO_COUNT>
0

> <PUBCHEM_BOND_DEF_STEREO_COUNT>
0

> <PUBCHEM_BOND_UDEF_STEREO_COUNT>
0

> <PUBCHEM_ISOTOPIC_ATOM_COUNT>
0

> <PUBCHEM_COMPONENT_COUNT>
1

> <PUBCHEM_CACTVS_TAUTO_COUNT>
18

> <PUBCHEM_COORDINATE_TYPE>
1
5
255

> <PUBCHEM_BONDANNOTATIONS>
10  28  8
10  31  8
11  12  5
14  15  8
14  16  8
15  20  8
16  21  8
16  23  8
17  22  8
20  24  8
21  24  8
22  23  8
28  29  8
29  30  8
30  32  8
31  32  8
6  14  8
6  17  8

$$$$
16738711
  -OEChem-11021605012D

 51 54  0     0  0  0  0  0  0999 V2000
    8.9282   -1.7018    0.0000 F   0  0  0  0  0  0  0  0  0  0  0  0
    7.1962    1.2982    0.0000 F   0  0  0  0  0  0  0  0  0  0  0  0
   10.6766    2.3328    0.0000 O   0  0  0  0  0  0  0  0  0  0  0  0
   13.3263    0.8257    0.0000 O   0  0  0  0  0  0  0  0  0  0  0  0
   12.4545    2.3223    0.0000 O   0  0  0  0  0  0  0  0  0  0  0  0
   10.6882   -0.7365    0.0000 N   0  0  0  0  0  0  0  0  0  0  0  0
    7.1962   -0.7018    0.0000 N   0  0  0  0  0  0  0  0  0  0  0  0
    8.9282    2.2982    0.0000 N   0  0  0  0  0  0  0  0  0  0  0  0
   10.6766   -1.7364    0.0000 C   0  0  0  0  0  0  0  0  0  0  0  0
   10.1666   -2.5966    0.0000 C   0  0  0  0  0  0  0  0  0  0  0  0
   11.1666   -2.6082    0.0000 C   0  0  0  0  0  0  0  0  0  0  0  0
    9.7942   -0.2018    0.0000 C   0  0  0  0  0  0  0  0  0  0  0  0
   11.5942   -0.2226    0.0000 C   0  0  0  0  0  0  0  0  0  0  0  0
    9.7942    0.7982    0.0000 C   0  0  0  0  0  0  0  0  0  0  0  0
    8.9282   -0.7018    0.0000 C   0  0  0  0  0  0  0  0  0  0  0  0
   11.5942    0.8190    0.0000 C   0  0  0  0  0  0  0  0  0  0  0  0
   10.6882    1.3328    0.0000 C   0  0  0  0  0  0  0  0  0  0  0  0
    8.9282    1.2982    0.0000 C   0  0  0  0  0  0  0  0  0  0  0  0
    8.0622   -0.2018    0.0000 C   0  0  0  0  0  0  0  0  0  0  0  0
    8.0622    0.7982    0.0000 C   0  0  0  0  0  0  0  0  0  0  0  0
   12.4583    1.3223    0.0000 C   0  0  0  0  0  0  0  0  0  0  0  0
    6.3301   -0.2018    0.0000 C   0  0  0  0  0  0  0  0  0  0  0  0
    5.4641   -0.7018    0.0000 C   0  0  0  0  0  0  0  0  0  0  0  0
    4.5981   -0.2018    0.0000 C   0  0  0  0  0  0  0  0  0  0  0  0
    3.7320   -0.7018    0.0000 C   0  0  0  0  0  0  0  0  0  0  0  0
    2.8660   -0.2018    0.0000 C   0  0  0  0  0  0  0  0  0  0  0  0
    3.7320   -1.7018    0.0000 C   0  0  0  0  0  0  0  0  0  0  0  0
    2.0000   -0.7018    0.0000 C   0  0  0  0  0  0  0  0  0  0  0  0
    2.8660   -2.2018    0.0000 C   0  0  0  0  0  0  0  0  0  0  0  0
    2.0000   -1.7018    0.0000 C   0  0  0  0  0  0  0  0  0  0  0  0
   10.0796   -1.5690    0.0000 H   0  0  0  0  0  0  0  0  0  0  0  0
   11.2672   -3.2200    0.0000 H   0  0  0  0  0  0  0  0  0  0  0  0
   11.7516   -2.4029    0.0000 H   0  0  0  0  0  0  0  0  0  0  0  0
    9.5865   -2.3778    0.0000 H   0  0  0  0  0  0  0  0  0  0  0  0
   10.0519   -3.2059    0.0000 H   0  0  0  0  0  0  0  0  0  0  0  0
   12.1300   -0.5347    0.0000 H   0  0  0  0  0  0  0  0  0  0  0  0
    7.1962   -1.3218    0.0000 H   0  0  0  0  0  0  0  0  0  0  0  0
    6.7287    0.2731    0.0000 H   0  0  0  0  0  0  0  0  0  0  0  0
    5.9316    0.2731    0.0000 H   0  0  0  0  0  0  0  0  0  0  0  0
    5.0656   -1.1768    0.0000 H   0  0  0  0  0  0  0  0  0  0  0  0
    5.8626   -1.1768    0.0000 H   0  0  0  0  0  0  0  0  0  0  0  0
    8.3913    2.6082    0.0000 H   0  0  0  0  0  0  0  0  0  0  0  0
    9.4651    2.6082    0.0000 H   0  0  0  0  0  0  0  0  0  0  0  0
    4.9966    0.2731    0.0000 H   0  0  0  0  0  0  0  0  0  0  0  0
    4.1996    0.2731    0.0000 H   0  0  0  0  0  0  0  0  0  0  0  0
   13.8620    1.1377    0.0000 H   0  0  0  0  0  0  0  0  0  0  0  0
    2.8660    0.4182    0.0000 H   0  0  0  0  0  0  0  0  0  0  0  0
    4.2690   -2.0118    0.0000 H   0  0  0  0  0  0  0  0  0  0  0  0
    1.4631   -0.3918    0.0000 H   0  0  0  0  0  0  0  0  0  0  0  0
    2.8660   -2.8218    0.0000 H   0  0  0  0  0  0  0  0  0  0  0  0
    1.4631   -2.0118    0.0000 H   0  0  0  0  0  0  0  0  0  0  0  0
  1 15  1  0  0  0  0
  2 20  1  0  0  0  0
  3 17  2  0  0  0  0
  4 21  1  0  0  0  0
  4 46  1  0  0  0  0
  5 21  2  0  0  0  0
  6  9  1  0  0  0  0
  6 12  1  0  0  0  0
  6 13  1  0  0  0  0
  7 19  1  0  0  0  0
  7 22  1  0  0  0  0
  7 37  1  0  0  0  0
  8 18  1  0  0  0  0
  8 42  1  0  0  0  0
  8 43  1  0  0  0  0
  9 10  1  0  0  0  0
  9 11  1  0  0  0  0
  9 31  1  0  0  0  0
 10 11  1  0  0  0  0
 10 34  1  0  0  0  0
 10 35  1  0  0  0  0
 11 32  1  0  0  0  0
 11 33  1  0  0  0  0
 12 14  1  0  0  0  0
 12 15  2  0  0  0  0
 13 16  2  0  0  0  0
 13 36  1  0  0  0  0
 14 17  1  0  0  0  0
 14 18  2  0  0  0  0
 15 19  1  0  0  0  0
 16 17  1  0  0  0  0
 16 21  1  0  0  0  0
 18 20  1  0  0  0  0
 19 20  2  0  0  0  0
 22 23  1  0  0  0  0
 22 38  1  0  0  0  0
 22 39  1  0  0  0  0
 23 24  1  0  0  0  0
 23 40  1  0  0  0  0
 23 41  1  0  0  0  0
 24 25  1  0  0  0  0
 24 44  1  0  0  0  0
 24 45  1  0  0  0  0
 25 26  2  0  0  0  0
 25 27  1  0  0  0  0
 26 28  1  0  0  0  0
 26 47  1  0  0  0  0
 27 29  2  0  0  0  0
 27 48  1  0  0  0  0
 28 30  2  0  0  0  0
 28 49  1  0  0  0  0
 29 30  1  0  0  0  0
 29 50  1  0  0  0  0
 30 51  1  0  0  0  0
M  END
> <PUBCHEM_COMPOUND_CID>
16738711

> <PUBCHEM_COMPOUND_CANONICALIZED>
1

> <PUBCHEM_CACTVS_COMPLEXITY>
693

> <PUBCHEM_CACTVS_HBOND_ACCEPTOR>
8

> <PUBCHEM_CACTVS_HBOND_DONOR>
3

> <PUBCHEM_CACTVS_ROTATABLE_BOND>
7

> <PUBCHEM_CACTVS_SUBSKEYS>
AAADceB7MYAAAAAAAAAAAAAAGAAAAAAAAAAwYIAAAAAAAACBQAAAHwAQCAAADCzBmAwwyIPAAgCIAqTWSACCAAAlAAAIiIEIRMgIJD7I1dGEYYhksADI2ceY2aOeCAAAAAQCAAAQAAAACAQAAAAAAAAAAA==

> <PUBCHEM_IUPAC_OPENEYE_NAME>
5-amino-1-cyclopropyl-6,8-difluoro-4-oxo-7-(3-phenylpropylamino)quinoline-3-carboxylic acid

> <PUBCHEM_IUPAC_CAS_NAME>
5-amino-1-cyclopropyl-6,8-difluoro-4-oxo-7-(3-phenylpropylamino)-3-quinolinecarboxylic acid

> <PUBCHEM_IUPAC_NAME>
5-amino-1-cyclopropyl-6,8-difluoro-4-oxo-7-(3-phenylpropylamino)quinoline-3-carboxylic acid

> <PUBCHEM_IUPAC_SYSTEMATIC_NAME>
5-azanyl-1-cyclopropyl-6,8-bis(fluoranyl)-4-oxidanylidene-7-(3-phenylpropylamino)quinoline-3-carboxylic acid

> <PUBCHEM_IUPAC_TRADITIONAL_NAME>
5-amino-1-cyclopropyl-6,8-difluoro-4-keto-7-(3-phenylpropylamino)quinoline-3-carboxylic acid

> <PUBCHEM_IUPAC_INCHI>
InChI=1S/C22H21F2N3O3/c23-16-18(25)15-20(27(13-8-9-13)11-14(21(15)28)22(29)30)17(24)19(16)26-10-4-7-12-5-2-1-3-6-12/h1-3,5-6,11,13,26H,4,7-10,25H2,(H,29,30)

> <PUBCHEM_IUPAC_INCHIKEY>
HUSHBWWJQOSZCE-UHFFFAOYSA-N

> <PUBCHEM_XLOGP3_AA>
4.4

> <PUBCHEM_EXACT_MASS>
413.155

> <PUBCHEM_MOLECULAR_FORMULA>
C22H21F2N3O3

> <PUBCHEM_MOLECULAR_WEIGHT>
413.425

> <PUBCHEM_OPENEYE_CAN_SMILES>
C1CC1N2C=C(C(=O)C3=C2C(=C(C(=C3N)F)NCCCC4=CC=CC=C4)F)C(=O)O

> <PUBCHEM_OPENEYE_ISO_SMILES>
C1CC1N2C=C(C(=O)C3=C2C(=C(C(=C3N)F)NCCCC4=CC=CC=C4)F)C(=O)O

> <PUBCHEM_CACTVS_TPSA>
95.7

> <PUBCHEM_MONOISOTOPIC_WEIGHT>
413.155

> <PUBCHEM_TOTAL_CHARGE>
0

> <PUBCHEM_HEAVY_ATOM_COUNT>
30

> <PUBCHEM_ATOM_DEF_STEREO_COUNT>
0

> <PUBCHEM_ATOM_UDEF_STEREO_COUNT>
0

> <PUBCHEM_BOND_DEF_STEREO_COUNT>
0

> <PUBCHEM_BOND_UDEF_STEREO_COUNT>
0

> <PUBCHEM_ISOTOPIC_ATOM_COUNT>
0

> <PUBCHEM_COMPONENT_COUNT>
1

> <PUBCHEM_CACTVS_TAUTO_COUNT>
9

> <PUBCHEM_COORDINATE_TYPE>
1
5
255

> <PUBCHEM_BONDANNOTATIONS>
12  14  8
12  15  8
13  16  8
14  17  8
14  18  8
15  19  8
16  17  8
18  20  8
19  20  8
25  26  8
25  27  8
26  28  8
27  29  8
28  30  8
29  30  8
6  12  8
6  13  8

$$$$
25195477
  -OEChem-11021605012D

 57 61  0     0  0  0  0  0  0999 V2000
    5.5670    1.2854    0.0000 F   0  0  0  0  0  0  0  0  0  0  0  0
    7.2641   -1.7135    0.0000 O   0  0  0  0  0  0  0  0  0  0  0  0
    2.8680   -1.1894    0.0000 O   0  0  0  0  0  0  0  0  0  0  0  0
    2.8718   -4.2377    0.0000 O   0  0  0  0  0  0  0  0  0  0  0  0
    2.0000   -2.7410    0.0000 O   0  0  0  0  0  0  0  0  0  0  0  0
    5.5320   -2.7135    0.0000 N   0  0  0  0  0  0  0  0  0  0  0  0
    7.2690    0.2717    0.0000 N   0  0  0  0  0  0  0  0  0  0  0  0
    3.8263    0.3395    0.0000 N   0  0  0  0  0  0  0  0  0  0  0  0
    8.1535    2.7653    0.0000 N   0  0  0  0  0  0  0  0  0  0  0  0
    9.0306    4.2588    0.0000 N   0  0  0  0  0  0  0  0  0  0  0  0
    6.3981   -3.2135    0.0000 C   0  0  0  0  0  0  0  0  0  0  0  0
    7.2071   -3.8013    0.0000 C   0  0  0  0  0  0  0  0  0  0  0  0
    5.5891   -3.8013    0.0000 C   0  0  0  0  0  0  0  0  0  0  0  0
    5.8981   -4.7524    0.0000 C   0  0  0  0  0  0  0  0  0  0  0  0
    6.8981   -4.7524    0.0000 C   0  0  0  0  0  0  0  0  0  0  0  0
    7.2641   -2.7135    0.0000 C   0  0  0  0  0  0  0  0  0  0  0  0
    5.5320   -1.7135    0.0000 C   0  0  0  0  0  0  0  0  0  0  0  0
    6.3981   -1.2135    0.0000 C   0  0  0  0  0  0  0  0  0  0  0  0
    4.6381   -3.2482    0.0000 C   0  0  0  0  0  0  0  0  0  0  0  0
    4.6381   -1.1789    0.0000 C   0  0  0  0  0  0  0  0  0  0  0  0
    3.7320   -2.7344    0.0000 C   0  0  0  0  0  0  0  0  0  0  0  0
    6.3993   -0.2218    0.0000 C   0  0  0  0  0  0  0  0  0  0  0  0
    3.7320   -1.6927    0.0000 C   0  0  0  0  0  0  0  0  0  0  0  0
    4.6759   -0.1879    0.0000 C   0  0  0  0  0  0  0  0  0  0  0  0
    5.5473    0.2856    0.0000 C   0  0  0  0  0  0  0  0  0  0  0  0
    2.8680   -3.2377    0.0000 C   0  0  0  0  0  0  0  0  0  0  0  0
    7.2764    1.2717    0.0000 C   0  0  0  0  0  0  0  0  0  0  0  0
    8.1461    1.7653    0.0000 C   0  0  0  0  0  0  0  0  0  0  0  0
    9.0232    3.2588    0.0000 C   0  0  0  0  0  0  0  0  0  0  0  0
    9.8855    2.7524    0.0000 C   0  0  0  0  0  0  0  0  0  0  0  0
   10.7552    3.2460    0.0000 C   0  0  0  0  0  0  0  0  0  0  0  0
    9.9003    4.7524    0.0000 C   0  0  0  0  0  0  0  0  0  0  0  0
   10.7626    4.2460    0.0000 C   0  0  0  0  0  0  0  0  0  0  0  0
    5.2791   -3.2644    0.0000 H   0  0  0  0  0  0  0  0  0  0  0  0
    5.0227   -4.0535    0.0000 H   0  0  0  0  0  0  0  0  0  0  0  0
    7.7735   -4.0535    0.0000 H   0  0  0  0  0  0  0  0  0  0  0  0
    7.5171   -3.2644    0.0000 H   0  0  0  0  0  0  0  0  0  0  0  0
    5.2916   -4.8813    0.0000 H   0  0  0  0  0  0  0  0  0  0  0  0
    5.9629   -5.3690    0.0000 H   0  0  0  0  0  0  0  0  0  0  0  0
    6.8333   -5.3690    0.0000 H   0  0  0  0  0  0  0  0  0  0  0  0
    7.5045   -4.8813    0.0000 H   0  0  0  0  0  0  0  0  0  0  0  0
    7.4762   -3.2962    0.0000 H   0  0  0  0  0  0  0  0  0  0  0  0
    7.8747   -2.6059    0.0000 H   0  0  0  0  0  0  0  0  0  0  0  0
    4.6453   -3.8682    0.0000 H   0  0  0  0  0  0  0  0  0  0  0  0
    7.8036   -0.0422    0.0000 H   0  0  0  0  0  0  0  0  0  0  0  0
    3.8461    0.9592    0.0000 H   0  0  0  0  0  0  0  0  0  0  0  0
    3.2797    0.0469    0.0000 H   0  0  0  0  0  0  0  0  0  0  0  0
    7.0687    1.8559    0.0000 H   0  0  0  0  0  0  0  0  0  0  0  0
    6.6651    1.1686    0.0000 H   0  0  0  0  0  0  0  0  0  0  0  0
    8.3539    1.1811    0.0000 H   0  0  0  0  0  0  0  0  0  0  0  0
    8.7575    1.8684    0.0000 H   0  0  0  0  0  0  0  0  0  0  0  0
    2.3361   -4.5498    0.0000 H   0  0  0  0  0  0  0  0  0  0  0  0
    7.6189    3.0792    0.0000 H   0  0  0  0  0  0  0  0  0  0  0  0
    9.8809    2.1325    0.0000 H   0  0  0  0  0  0  0  0  0  0  0  0
   11.2899    2.9320    0.0000 H   0  0  0  0  0  0  0  0  0  0  0  0
    9.9049    5.3724    0.0000 H   0  0  0  0  0  0  0  0  0  0  0  0
   11.3018    4.5520    0.0000 H   0  0  0  0  0  0  0  0  0  0  0  0
  1 25  1  0  0  0  0
  2 16  1  0  0  0  0
  2 18  1  0  0  0  0
  3 23  2  0  0  0  0
  4 26  1  0  0  0  0
  4 52  1  0  0  0  0
  5 26  2  0  0  0  0
  6 11  1  0  0  0  0
  6 17  1  0  0  0  0
  6 19  1  0  0  0  0
  7 22  1  0  0  0  0
  7 27  1  0  0  0  0
  7 45  1  0  0  0  0
  8 24  1  0  0  0  0
  8 46  1  0  0  0  0
  8 47  1  0  0  0  0
  9 28  1  0  0  0  0
  9 29  1  0  0  0  0
  9 53  1  0  0  0  0
 10 29  1  0  0  0  0
 10 32  2  0  0  0  0
 11 12  1  0  0  0  0
 11 13  1  0  0  0  0
 11 16  1  0  0  0  0
 12 15  1  0  0  0  0
 12 36  1  0  0  0  0
 12 37  1  0  0  0  0
 13 14  1  0  0  0  0
 13 34  1  0  0  0  0
 13 35  1  0  0  0  0
 14 15  1  0  0  0  0
 14 38  1  0  0  0  0
 14 39  1  0  0  0  0
 15 40  1  0  0  0  0
 15 41  1  0  0  0  0
 16 42  1  0  0  0  0
 16 43  1  0  0  0  0
 17 18  2  0  0  0  0
 17 20  1  0  0  0  0
 18 22  1  0  0  0  0
 19 21  2  0  0  0  0
 19 44  1  0  0  0  0
 20 23  1  0  0  0  0
 20 24  2  0  0  0  0
 21 23  1  0  0  0  0
 21 26  1  0  0  0  0
 22 25  2  0  0  0  0
 24 25  1  0  0  0  0
 27 28  1  0  0  0  0
 27 48  1  0  0  0  0
 27 49  1  0  0  0  0
 28 50  1  0  0  0  0
 28 51  1  0  0  0  0
 29 30  2  0  0  0  0
 30 31  1  0  0  0  0
 30 54  1  0  0  0  0
 31 33  2  0  0  0  0
 31 55  1  0  0  0  0
 32 33  1  0  0  0  0
 32 56  1  0  0  0  0
 33 57  1  0  0  0  0
M  END
> <PUBCHEM_COMPOUND_CID>
25195477

> <PUBCHEM_COMPOUND_CANONICALIZED>
1

> <PUBCHEM_CACTVS_COMPLEXITY>
804

> <PUBCHEM_CACTVS_HBOND_ACCEPTOR>
10

> <PUBCHEM_CACTVS_HBOND_DONOR>
4

> <PUBCHEM_CACTVS_ROTATABLE_BOND>
6

> <PUBCHEM_CACTVS_SUBSKEYS>
AAADceB7uQAAAAAAAAAAAAAAAAAAAYAAAAA8WIEAAAAAAACxwAAAHwAQCAAADIzhmg49/pPIFgCoArb3bACCiCk1IiAJ2KE9bNiOZv7M/duXeajs8BPY+ee62bOeCEABAAQCEAAQgAIACAQgAAAAAAAAAA==

> <PUBCHEM_IUPAC_INCHI>
InChI=1S/C23H24FN5O4/c24-16-17(25)15-19-21(18(16)28-10-9-27-14-5-1-4-8-26-14)33-12-23(6-2-3-7-23)29(19)11-13(20(15)30)22(31)32/h1,4-5,8,11,28H,2-3,6-7,9-10,12,25H2,(H,26,27)(H,31,32)

> <PUBCHEM_IUPAC_INCHIKEY>
WAYOWHQFYFTAPH-UHFFFAOYSA-N

> <PUBCHEM_XLOGP3_AA>
3.2

> <PUBCHEM_EXACT_MASS>
453.181

> <PUBCHEM_MOLECULAR_FORMULA>
C23H24FN5O4

> <PUBCHEM_MOLECULAR_WEIGHT>
453.474

> <PUBCHEM_OPENEYE_CAN_SMILES>
C1CCC2(C1)COC3=C(C(=C(C4=C3N2C=C(C4=O)C(=O)O)N)F)NCCNC5=CC=CC=N5

> <PUBCHEM_OPENEYE_ISO_SMILES>
C1CCC2(C1)COC3=C(C(=C(C4=C3N2C=C(C4=O)C(=O)O)N)F)NCCNC5=CC=CC=N5

> <PUBCHEM_CACTVS_TPSA>
130

> <PUBCHEM_MONOISOTOPIC_WEIGHT>
453.181

> <PUBCHEM_TOTAL_CHARGE>
0

> <PUBCHEM_HEAVY_ATOM_COUNT>
33

> <PUBCHEM_ATOM_DEF_STEREO_COUNT>
0

> <PUBCHEM_ATOM_UDEF_STEREO_COUNT>
0

> <PUBCHEM_BOND_DEF_STEREO_COUNT>
0

> <PUBCHEM_BOND_UDEF_STEREO_COUNT>
0

> <PUBCHEM_ISOTOPIC_ATOM_COUNT>
0

> <PUBCHEM_COMPONENT_COUNT>
1

> <PUBCHEM_CACTVS_TAUTO_COUNT>
18

> <PUBCHEM_COORDINATE_TYPE>
1
5
255

> <PUBCHEM_BONDANNOTATIONS>
10  29  8
10  32  8
17  18  8
17  20  8
18  22  8
19  21  8
20  23  8
20  24  8
21  23  8
22  25  8
24  25  8
29  30  8
30  31  8
31  33  8
32  33  8
6  17  8
6  19  8

$$$$
24753849
  -OEChem-11021605012D

 55 58  0     0  0  0  0  0  0999 V2000
    8.9282   -1.3654    0.0000 F   0  0  0  0  0  0  0  0  0  0  0  0
    7.1962    1.6346    0.0000 F   0  0  0  0  0  0  0  0  0  0  0  0
   10.6766    2.6692    0.0000 O   0  0  0  0  0  0  0  0  0  0  0  0
   13.3263    1.1620    0.0000 O   0  0  0  0  0  0  0  0  0  0  0  0
   12.4545    2.6587    0.0000 O   0  0  0  0  0  0  0  0  0  0  0  0
   10.6882   -0.4001    0.0000 N   0  0  0  0  0  0  0  0  0  0  0  0
    7.1962   -0.3654    0.0000 N   0  0  0  0  0  0  0  0  0  0  0  0
    8.9282    2.6346    0.0000 N   0  0  0  0  0  0  0  0  0  0  0  0
    4.5981    0.1346    0.0000 N   0  0  0  0  0  0  0  0  0  0  0  0
    3.7320   -1.3654    0.0000 N   0  0  0  0  0  0  0  0  0  0  0  0
   10.6766   -1.4000    0.0000 C   0  0  0  0  0  0  0  0  0  0  0  0
    9.8608   -1.9784    0.0000 C   0  0  0  0  0  0  0  0  0  0  0  0
   11.4788   -1.9971    0.0000 C   0  0  0  0  0  0  0  0  0  0  0  0
   10.1588   -2.9330    0.0000 C   0  0  0  0  0  0  0  0  0  0  0  0
   11.1588   -2.9446    0.0000 C   0  0  0  0  0  0  0  0  0  0  0  0
    9.7942    0.1346    0.0000 C   0  0  0  0  0  0  0  0  0  0  0  0
   11.5942    0.1137    0.0000 C   0  0  0  0  0  0  0  0  0  0  0  0
    9.7942    1.1346    0.0000 C   0  0  0  0  0  0  0  0  0  0  0  0
   11.5942    1.1554    0.0000 C   0  0  0  0  0  0  0  0  0  0  0  0
    8.9282   -0.3654    0.0000 C   0  0  0  0  0  0  0  0  0  0  0  0
   10.6882    1.6692    0.0000 C   0  0  0  0  0  0  0  0  0  0  0  0
    8.9282    1.6346    0.0000 C   0  0  0  0  0  0  0  0  0  0  0  0
    8.0622    0.1346    0.0000 C   0  0  0  0  0  0  0  0  0  0  0  0
    8.0622    1.1346    0.0000 C   0  0  0  0  0  0  0  0  0  0  0  0
   12.4583    1.6587    0.0000 C   0  0  0  0  0  0  0  0  0  0  0  0
    6.3301    0.1346    0.0000 C   0  0  0  0  0  0  0  0  0  0  0  0
    5.4641   -0.3654    0.0000 C   0  0  0  0  0  0  0  0  0  0  0  0
    3.7320   -0.3654    0.0000 C   0  0  0  0  0  0  0  0  0  0  0  0
    2.8660    0.1346    0.0000 C   0  0  0  0  0  0  0  0  0  0  0  0
    2.0000   -0.3654    0.0000 C   0  0  0  0  0  0  0  0  0  0  0  0
    2.8660   -1.8654    0.0000 C   0  0  0  0  0  0  0  0  0  0  0  0
    2.0000   -1.3654    0.0000 C   0  0  0  0  0  0  0  0  0  0  0  0
   11.2322   -1.1250    0.0000 H   0  0  0  0  0  0  0  0  0  0  0  0
    9.5571   -1.4379    0.0000 H   0  0  0  0  0  0  0  0  0  0  0  0
    9.2916   -2.2240    0.0000 H   0  0  0  0  0  0  0  0  0  0  0  0
   12.0422   -2.2558    0.0000 H   0  0  0  0  0  0  0  0  0  0  0  0
   11.7950   -1.4638    0.0000 H   0  0  0  0  0  0  0  0  0  0  0  0
    9.5510   -3.0549    0.0000 H   0  0  0  0  0  0  0  0  0  0  0  0
   10.2165   -3.5503    0.0000 H   0  0  0  0  0  0  0  0  0  0  0  0
   11.0868   -3.5604    0.0000 H   0  0  0  0  0  0  0  0  0  0  0  0
   11.7637   -3.0805    0.0000 H   0  0  0  0  0  0  0  0  0  0  0  0
   12.1300   -0.1983    0.0000 H   0  0  0  0  0  0  0  0  0  0  0  0
    7.1962   -0.9854    0.0000 H   0  0  0  0  0  0  0  0  0  0  0  0
    8.3913    2.9446    0.0000 H   0  0  0  0  0  0  0  0  0  0  0  0
    9.4651    2.9446    0.0000 H   0  0  0  0  0  0  0  0  0  0  0  0
    6.7287    0.6095    0.0000 H   0  0  0  0  0  0  0  0  0  0  0  0
    5.9316    0.6095    0.0000 H   0  0  0  0  0  0  0  0  0  0  0  0
    5.0656   -0.8404    0.0000 H   0  0  0  0  0  0  0  0  0  0  0  0
    5.8626   -0.8404    0.0000 H   0  0  0  0  0  0  0  0  0  0  0  0
   13.8620    1.4741    0.0000 H   0  0  0  0  0  0  0  0  0  0  0  0
    4.5981    0.7546    0.0000 H   0  0  0  0  0  0  0  0  0  0  0  0
    2.8660    0.7546    0.0000 H   0  0  0  0  0  0  0  0  0  0  0  0
    1.4631   -0.0554    0.0000 H   0  0  0  0  0  0  0  0  0  0  0  0
    2.8660   -2.4854    0.0000 H   0  0  0  0  0  0  0  0  0  0  0  0
    1.4631   -1.6754    0.0000 H   0  0  0  0  0  0  0  0  0  0  0  0
  1 20  1  0  0  0  0
  2 24  1  0  0  0  0
  3 21  2  0  0  0  0
  4 25  1  0  0  0  0
  4 50  1  0  0  0  0
  5 25  2  0  0  0  0
  6 11  1  0  0  0  0
  6 16  1  0  0  0  0
  6 17  1  0  0  0  0
  7 23  1  0  0  0  0
  7 26  1  0  0  0  0
  7 43  1  0  0  0  0
  8 22  1  0  0  0  0
  8 44  1  0  0  0  0
  8 45  1  0  0  0  0
  9 27  1  0  0  0  0
  9 28  1  0  0  0  0
  9 51  1  0  0  0  0
 10 28  1  0  0  0  0
 10 31  2  0  0  0  0
 11 12  1  0  0  0  0
 11 13  1  0  0  0  0
 11 33  1  0  0  0  0
 12 14  1  0  0  0  0
 12 34  1  0  0  0  0
 12 35  1  0  0  0  0
 13 15  1  0  0  0  0
 13 36  1  0  0  0  0
 13 37  1  0  0  0  0
 14 15  1  0  0  0  0
 14 38  1  0  0  0  0
 14 39  1  0  0  0  0
 15 40  1  0  0  0  0
 15 41  1  0  0  0  0
 16 18  1  0  0  0  0
 16 20  2  0  0  0  0
 17 19  2  0  0  0  0
 17 42  1  0  0  0  0
 18 21  1  0  0  0  0
 18 22  2  0  0  0  0
 19 21  1  0  0  0  0
 19 25  1  0  0  0  0
 20 23  1  0  0  0  0
 22 24  1  0  0  0  0
 23 24  2  0  0  0  0
 26 27  1  0  0  0  0
 26 46  1  0  0  0  0
 26 47  1  0  0  0  0
 27 48  1  0  0  0  0
 27 49  1  0  0  0  0
 28 29  2  0  0  0  0
 29 30  1  0  0  0  0
 29 52  1  0  0  0  0
 30 32  2  0  0  0  0
 30 53  1  0  0  0  0
 31 32  1  0  0  0  0
 31 54  1  0  0  0  0
 32 55  1  0  0  0  0
M  END
> <PUBCHEM_COMPOUND_CID>
24753849

> <PUBCHEM_COMPOUND_CANONICALIZED>
1

> <PUBCHEM_CACTVS_COMPLEXITY>
732

> <PUBCHEM_CACTVS_HBOND_ACCEPTOR>
10

> <PUBCHEM_CACTVS_HBOND_DONOR>
4

> <PUBCHEM_CACTVS_ROTATABLE_BOND>
7

> <PUBCHEM_CACTVS_SUBSKEYS>
AAADceB7sYAAAAAAAAAAAAAAAAAAAYAAAAA8QIAAAAAAAACBwAAAHwAQCAAADCzBmgw9+JPIEgCoArb3bACCgCk1AiAJ2KE4ZNiIZP7I3dGUYYhssALI2eeY2aOeCAAAAAQCAAAQAAAACAQAAAAAAAAAAA==

> <PUBCHEM_IUPAC_OPENEYE_NAME>
5-amino-1-cyclopentyl-6,8-difluoro-4-oxo-7-[2-(2-pyridylamino)ethylamino]quinoline-3-carboxylic acid

> <PUBCHEM_IUPAC_CAS_NAME>
5-amino-1-cyclopentyl-6,8-difluoro-4-oxo-7-[2-(2-pyridinylamino)ethylamino]-3-quinolinecarboxylic acid

> <PUBCHEM_IUPAC_NAME>
5-amino-1-cyclopentyl-6,8-difluoro-4-oxo-7-[2-(pyridin-2-ylamino)ethylamino]quinoline-3-carboxylic acid

> <PUBCHEM_IUPAC_SYSTEMATIC_NAME>
5-azanyl-1-cyclopentyl-6,8-bis(fluoranyl)-4-oxidanylidene-7-[2-(pyridin-2-ylamino)ethylamino]quinoline-3-carboxylic acid

> <PUBCHEM_IUPAC_TRADITIONAL_NAME>
5-amino-1-cyclopentyl-6,8-difluoro-4-keto-7-[2-(2-pyridylamino)ethylamino]quinoline-3-carboxylic acid

> <PUBCHEM_IUPAC_INCHI>
InChI=1S/C22H23F2N5O3/c23-16-18(25)15-20(17(24)19(16)28-10-9-27-14-7-3-4-8-26-14)29(12-5-1-2-6-12)11-13(21(15)30)22(31)32/h3-4,7-8,11-12,28H,1-2,5-6,9-10,25H2,(H,26,27)(H,31,32)

> <PUBCHEM_IUPAC_INCHIKEY>
BKVNXOAQHKZIMZ-UHFFFAOYSA-N

> <PUBCHEM_XLOGP3_AA>
3.7

> <PUBCHEM_EXACT_MASS>
443.177

> <PUBCHEM_MOLECULAR_FORMULA>
C22H23F2N5O3

> <PUBCHEM_MOLECULAR_WEIGHT>
443.455

> <PUBCHEM_OPENEYE_CAN_SMILES>
C1CCC(C1)N2C=C(C(=O)C3=C2C(=C(C(=C3N)F)NCCNC4=CC=CC=N4)F)C(=O)O

> <PUBCHEM_OPENEYE_ISO_SMILES>
C1CCC(C1)N2C=C(C(=O)C3=C2C(=C(C(=C3N)F)NCCNC4=CC=CC=N4)F)C(=O)O

> <PUBCHEM_CACTVS_TPSA>
121

> <PUBCHEM_MONOISOTOPIC_WEIGHT>
443.177

> <PUBCHEM_TOTAL_CHARGE>
0

> <PUBCHEM_HEAVY_ATOM_COUNT>
32

> <PUBCHEM_ATOM_DEF_STEREO_COUNT>
0

> <PUBCHEM_ATOM_UDEF_STEREO_COUNT>
0

> <PUBCHEM_BOND_DEF_STEREO_COUNT>
0

> <PUBCHEM_BOND_UDEF_STEREO_COUNT>
0

> <PUBCHEM_ISOTOPIC_ATOM_COUNT>
0

> <PUBCHEM_COMPONENT_COUNT>
1

> <PUBCHEM_CACTVS_TAUTO_COUNT>
18

> <PUBCHEM_COORDINATE_TYPE>
1
5
255

> <PUBCHEM_BONDANNOTATIONS>
10  28  8
10  31  8
16  18  8
16  20  8
17  19  8
18  21  8
18  22  8
19  21  8
20  23  8
22  24  8
23  24  8
28  29  8
29  30  8
30  32  8
31  32  8
6  16  8
6  17  8

$$$$
53484135
  -OEChem-11021605012D

 50 53  0     1  0  0  0  0  0999 V2000
    5.4706    1.1342    0.0000 F   0  0  0  0  0  0  0  0  0  0  0  0
    7.2467   -1.8726    0.0000 O   0  0  0  0  0  0  0  0  0  0  0  0
    2.8828   -1.3542    0.0000 O   0  0  0  0  0  0  0  0  0  0  0  0
    2.8363   -4.3348    0.0000 O   0  0  0  0  0  0  0  0  0  0  0  0
    2.0000   -2.8181    0.0000 O   0  0  0  0  0  0  0  0  0  0  0  0
    5.4546   -2.9073    0.0000 N   0  0  0  0  0  0  0  0  0  0  0  0
    7.2027    0.1342    0.0000 N   0  0  0  0  0  0  0  0  0  0  0  0
    3.7386    0.1342    0.0000 N   0  0  0  0  0  0  0  0  0  0  0  0
    8.0687    2.6342    0.0000 N   0  0  0  0  0  0  0  0  0  0  0  0
    8.9347    4.1342    0.0000 N   0  0  0  0  0  0  0  0  0  0  0  0
    6.3526   -3.4351    0.0000 C   0  0  2  0  0  0  0  0  0  0  0  0
    5.4706   -1.8658    0.0000 C   0  0  0  0  0  0  0  0  0  0  0  0
    7.2547   -2.9142    0.0000 C   0  0  0  0  0  0  0  0  0  0  0  0
    6.3367   -1.3658    0.0000 C   0  0  0  0  0  0  0  0  0  0  0  0
    4.6046   -1.3658    0.0000 C   0  0  0  0  0  0  0  0  0  0  0  0
    6.3367   -0.3658    0.0000 C   0  0  0  0  0  0  0  0  0  0  0  0
    4.5775   -3.3701    0.0000 C   0  0  0  0  0  0  0  0  0  0  0  0
    6.3488   -4.4351    0.0000 C   0  0  0  0  0  0  0  0  0  0  0  0
    4.6046   -0.3658    0.0000 C   0  0  0  0  0  0  0  0  0  0  0  0
    3.7452   -1.8606    0.0000 C   0  0  0  0  0  0  0  0  0  0  0  0
    3.7317   -2.8522    0.0000 C   0  0  0  0  0  0  0  0  0  0  0  0
    5.4706    0.1342    0.0000 C   0  0  0  0  0  0  0  0  0  0  0  0
    7.2027    1.1342    0.0000 C   0  0  0  0  0  0  0  0  0  0  0  0
    2.8560   -3.3350    0.0000 C   0  0  0  0  0  0  0  0  0  0  0  0
    8.0687    1.6342    0.0000 C   0  0  0  0  0  0  0  0  0  0  0  0
    8.9347    3.1342    0.0000 C   0  0  0  0  0  0  0  0  0  0  0  0
    9.8008    2.6342    0.0000 C   0  0  0  0  0  0  0  0  0  0  0  0
   10.6668    3.1342    0.0000 C   0  0  0  0  0  0  0  0  0  0  0  0
    9.8008    4.6342    0.0000 C   0  0  0  0  0  0  0  0  0  0  0  0
   10.6668    4.1342    0.0000 C   0  0  0  0  0  0  0  0  0  0  0  0
    5.8139   -3.7420    0.0000 H   0  0  0  0  0  0  0  0  0  0  0  0
    7.4682   -3.4963    0.0000 H   0  0  0  0  0  0  0  0  0  0  0  0
    7.8647   -2.8034    0.0000 H   0  0  0  0  0  0  0  0  0  0  0  0
    4.5576   -3.9897    0.0000 H   0  0  0  0  0  0  0  0  0  0  0  0
    5.7288   -4.4327    0.0000 H   0  0  0  0  0  0  0  0  0  0  0  0
    6.3464   -5.0550    0.0000 H   0  0  0  0  0  0  0  0  0  0  0  0
    6.9688   -4.4374    0.0000 H   0  0  0  0  0  0  0  0  0  0  0  0
    7.7396   -0.1758    0.0000 H   0  0  0  0  0  0  0  0  0  0  0  0
    6.9906    1.7168    0.0000 H   0  0  0  0  0  0  0  0  0  0  0  0
    6.5921    1.0265    0.0000 H   0  0  0  0  0  0  0  0  0  0  0  0
    3.7386    0.7542    0.0000 H   0  0  0  0  0  0  0  0  0  0  0  0
    3.2016   -0.1758    0.0000 H   0  0  0  0  0  0  0  0  0  0  0  0
    8.2808    1.0516    0.0000 H   0  0  0  0  0  0  0  0  0  0  0  0
    8.6793    1.7419    0.0000 H   0  0  0  0  0  0  0  0  0  0  0  0
    7.5318    2.9442    0.0000 H   0  0  0  0  0  0  0  0  0  0  0  0
    2.2934   -4.6342    0.0000 H   0  0  0  0  0  0  0  0  0  0  0  0
    9.8008    2.0142    0.0000 H   0  0  0  0  0  0  0  0  0  0  0  0
   11.2037    2.8242    0.0000 H   0  0  0  0  0  0  0  0  0  0  0  0
    9.8008    5.2542    0.0000 H   0  0  0  0  0  0  0  0  0  0  0  0
   11.2037    4.4442    0.0000 H   0  0  0  0  0  0  0  0  0  0  0  0
  1 22  1  0  0  0  0
  2 13  1  0  0  0  0
  2 14  1  0  0  0  0
  3 20  2  0  0  0  0
  4 24  1  0  0  0  0
  4 46  1  0  0  0  0
  5 24  2  0  0  0  0
  6 11  1  0  0  0  0
  6 12  1  0  0  0  0
  6 17  1  0  0  0  0
  7 16  1  0  0  0  0
  7 23  1  0  0  0  0
  7 38  1  0  0  0  0
  8 19  1  0  0  0  0
  8 41  1  0  0  0  0
  8 42  1  0  0  0  0
  9 25  1  0  0  0  0
  9 26  1  0  0  0  0
  9 45  1  0  0  0  0
 10 26  1  0  0  0  0
 10 29  2  0  0  0  0
 11 13  1  0  0  0  0
 11 18  1  6  0  0  0
 11 31  1  0  0  0  0
 12 14  2  0  0  0  0
 12 15  1  0  0  0  0
 13 32  1  0  0  0  0
 13 33  1  0  0  0  0
 14 16  1  0  0  0  0
 15 19  2  0  0  0  0
 15 20  1  0  0  0  0
 16 22  2  0  0  0  0
 17 21  2  0  0  0  0
 17 34  1  0  0  0  0
 18 35  1  0  0  0  0
 18 36  1  0  0  0  0
 18 37  1  0  0  0  0
 19 22  1  0  0  0  0
 20 21  1  0  0  0  0
 21 24  1  0  0  0  0
 23 25  1  0  0  0  0
 23 39  1  0  0  0  0
 23 40  1  0  0  0  0
 25 43  1  0  0  0  0
 25 44  1  0  0  0  0
 26 27  2  0  0  0  0
 27 28  1  0  0  0  0
 27 47  1  0  0  0  0
 28 30  2  0  0  0  0
 28 48  1  0  0  0  0
 29 30  1  0  0  0  0
 29 49  1  0  0  0  0
 30 50  1  0  0  0  0
M  END
> <PUBCHEM_COMPOUND_CID>
53484135

> <PUBCHEM_COMPOUND_CANONICALIZED>
1

> <PUBCHEM_CACTVS_COMPLEXITY>
707

> <PUBCHEM_CACTVS_HBOND_ACCEPTOR>
10

> <PUBCHEM_CACTVS_HBOND_DONOR>
4

> <PUBCHEM_CACTVS_ROTATABLE_BOND>
6

> <PUBCHEM_CACTVS_SUBSKEYS>
AAADceB7uQAAAAAAAAAAAAAAAAAAAAAAAAA8WIEAAAAAAACxwAAAHwAQCAAADCzhmg4//pPIFgCoArb3bACCiCk1IiAJ2KE9bNiOZv7M/duXeajs8BPY+ee62bOeCEABAAQCEAAQgAIACAQgAAAAAAAAAA==

> <PUBCHEM_IUPAC_INCHI>
InChI=1S/C20H20FN5O4/c1-10-9-30-19-16(25-7-6-24-12-4-2-3-5-23-12)14(21)15(22)13-17(19)26(10)8-11(18(13)27)20(28)29/h2-5,8,10,25H,6-7,9,22H2,1H3,(H,23,24)(H,28,29)/t10-/m0/s1

> <PUBCHEM_IUPAC_INCHIKEY>
BEOOHAUYYYZCER-JTQLQIEISA-N

> <PUBCHEM_XLOGP3_AA>
2.5

> <PUBCHEM_EXACT_MASS>
413.15

> <PUBCHEM_MOLECULAR_FORMULA>
C20H20FN5O4

> <PUBCHEM_MOLECULAR_WEIGHT>
413.409

> <PUBCHEM_OPENEYE_CAN_SMILES>
CC1COC2=C(C(=C(C3=C2N1C=C(C3=O)C(=O)O)N)F)NCCNC4=CC=CC=N4

> <PUBCHEM_OPENEYE_ISO_SMILES>
C[C@H]1COC2=C(C(=C(C3=C2N1C=C(C3=O)C(=O)O)N)F)NCCNC4=CC=CC=N4

> <PUBCHEM_CACTVS_TPSA>
130

> <PUBCHEM_MONOISOTOPIC_WEIGHT>
413.15

> <PUBCHEM_TOTAL_CHARGE>
0

> <PUBCHEM_HEAVY_ATOM_COUNT>
30

> <PUBCHEM_ATOM_DEF_STEREO_COUNT>
1

> <PUBCHEM_ATOM_UDEF_STEREO_COUNT>
0

> <PUBCHEM_BOND_DEF_STEREO_COUNT>
0

> <PUBCHEM_BOND_UDEF_STEREO_COUNT>
0

> <PUBCHEM_ISOTOPIC_ATOM_COUNT>
0

> <PUBCHEM_COMPONENT_COUNT>
1

> <PUBCHEM_CACTVS_TAUTO_COUNT>
18

> <PUBCHEM_COORDINATE_TYPE>
1
5
255

> <PUBCHEM_BONDANNOTATIONS>
10  26  8
10  29  8
11  18  6
12  14  8
12  15  8
14  16  8
15  19  8
15  20  8
16  22  8
17  21  8
19  22  8
20  21  8
26  27  8
27  28  8
28  30  8
29  30  8
6  12  8
6  17  8

$$$$
16722836
  -OEChem-11021605012D

 73 76  0     0  0  0  0  0  0999 V2000
    4.5981   -1.2500    0.0000 S   0  0  0  0  0  0  0  0  0  0  0  0
    9.7942    3.7500    0.0000 O   0  0  0  0  0  0  0  0  0  0  0  0
    4.0981   -2.1160    0.0000 O   0  0  0  0  0  0  0  0  0  0  0  0
    5.0981   -0.3840    0.0000 O   0  0  0  0  0  0  0  0  0  0  0  0
   12.3923    3.2500    0.0000 N   0  0  0  0  0  0  0  0  0  0  0  0
    5.4641   -1.7500    0.0000 N   0  0  0  0  0  0  0  0  0  0  0  0
    2.8660    1.7500    0.0000 N   0  0  0  0  0  0  0  0  0  0  0  0
    6.3301    1.7500    0.0000 N   0  0  0  0  0  0  0  0  0  0  0  0
    4.5981    1.7500    0.0000 N   0  0  0  0  0  0  0  0  0  0  0  0
    5.4641    3.2500    0.0000 N   0  0  0  0  0  0  0  0  0  0  0  0
   12.4968    2.2555    0.0000 C   0  0  0  0  0  0  0  0  0  0  0  0
   13.3059    3.6567    0.0000 C   0  0  0  0  0  0  0  0  0  0  0  0
   13.4750    2.0476    0.0000 C   0  0  0  0  0  0  0  0  0  0  0  0
   13.9750    2.9136    0.0000 C   0  0  0  0  0  0  0  0  0  0  0  0
   11.5263    3.7500    0.0000 C   0  0  0  0  0  0  0  0  0  0  0  0
   10.6603    3.2500    0.0000 C   0  0  0  0  0  0  0  0  0  0  0  0
    5.4641   -2.7500    0.0000 C   0  0  0  0  0  0  0  0  0  0  0  0
    5.4641   -3.7500    0.0000 C   0  0  0  0  0  0  0  0  0  0  0  0
    6.4641   -2.7500    0.0000 C   0  0  0  0  0  0  0  0  0  0  0  0
    4.4641   -2.7500    0.0000 C   0  0  0  0  0  0  0  0  0  0  0  0
    3.7320   -0.7500    0.0000 C   0  0  0  0  0  0  0  0  0  0  0  0
    8.9282    3.2500    0.0000 C   0  0  0  0  0  0  0  0  0  0  0  0
    3.7320    0.2500    0.0000 C   0  0  0  0  0  0  0  0  0  0  0  0
    2.8660   -1.2500    0.0000 C   0  0  0  0  0  0  0  0  0  0  0  0
    2.8660    0.7500    0.0000 C   0  0  0  0  0  0  0  0  0  0  0  0
    8.0622    3.7500    0.0000 C   0  0  0  0  0  0  0  0  0  0  0  0
    8.9282    2.2500    0.0000 C   0  0  0  0  0  0  0  0  0  0  0  0
    2.0000   -0.7500    0.0000 C   0  0  0  0  0  0  0  0  0  0  0  0
    2.0000    0.2500    0.0000 C   0  0  0  0  0  0  0  0  0  0  0  0
    7.1962    2.2500    0.0000 C   0  0  0  0  0  0  0  0  0  0  0  0
    7.1962    3.2500    0.0000 C   0  0  0  0  0  0  0  0  0  0  0  0
    8.0622    1.7500    0.0000 C   0  0  0  0  0  0  0  0  0  0  0  0
    3.7320    2.2500    0.0000 C   0  0  0  0  0  0  0  0  0  0  0  0
    3.7320    3.2500    0.0000 C   0  0  0  0  0  0  0  0  0  0  0  0
    5.4641    2.2500    0.0000 C   0  0  0  0  0  0  0  0  0  0  0  0
    4.5981    3.7500    0.0000 C   0  0  0  0  0  0  0  0  0  0  0  0
    2.8660    3.7500    0.0000 C   0  0  0  0  0  0  0  0  0  0  0  0
   11.8768    2.2555    0.0000 H   0  0  0  0  0  0  0  0  0  0  0  0
   12.4320    1.6389    0.0000 H   0  0  0  0  0  0  0  0  0  0  0  0
   13.8074    4.0212    0.0000 H   0  0  0  0  0  0  0  0  0  0  0  0
   12.9958    4.1937    0.0000 H   0  0  0  0  0  0  0  0  0  0  0  0
   13.2834    1.4579    0.0000 H   0  0  0  0  0  0  0  0  0  0  0  0
   14.0414    1.7954    0.0000 H   0  0  0  0  0  0  0  0  0  0  0  0
   14.4766    2.5492    0.0000 H   0  0  0  0  0  0  0  0  0  0  0  0
   14.3898    3.3743    0.0000 H   0  0  0  0  0  0  0  0  0  0  0  0
   11.9248    4.2250    0.0000 H   0  0  0  0  0  0  0  0  0  0  0  0
   11.1278    4.2250    0.0000 H   0  0  0  0  0  0  0  0  0  0  0  0
   10.2617    2.7750    0.0000 H   0  0  0  0  0  0  0  0  0  0  0  0
   11.0588    2.7750    0.0000 H   0  0  0  0  0  0  0  0  0  0  0  0
    6.0010   -1.4400    0.0000 H   0  0  0  0  0  0  0  0  0  0  0  0
    4.8441   -3.7500    0.0000 H   0  0  0  0  0  0  0  0  0  0  0  0
    5.4641   -4.3700    0.0000 H   0  0  0  0  0  0  0  0  0  0  0  0
    6.0841   -3.7500    0.0000 H   0  0  0  0  0  0  0  0  0  0  0  0
    6.4641   -3.3700    0.0000 H   0  0  0  0  0  0  0  0  0  0  0  0
    7.0841   -2.7500    0.0000 H   0  0  0  0  0  0  0  0  0  0  0  0
    6.4641   -2.1300    0.0000 H   0  0  0  0  0  0  0  0  0  0  0  0
    4.4641   -2.1300    0.0000 H   0  0  0  0  0  0  0  0  0  0  0  0
    3.8441   -2.7500    0.0000 H   0  0  0  0  0  0  0  0  0  0  0  0
    4.4641   -3.3700    0.0000 H   0  0  0  0  0  0  0  0  0  0  0  0
    4.2690    0.5600    0.0000 H   0  0  0  0  0  0  0  0  0  0  0  0
    2.8660   -1.8700    0.0000 H   0  0  0  0  0  0  0  0  0  0  0  0
    8.0622    4.3700    0.0000 H   0  0  0  0  0  0  0  0  0  0  0  0
    9.4651    1.9400    0.0000 H   0  0  0  0  0  0  0  0  0  0  0  0
    1.4631   -1.0600    0.0000 H   0  0  0  0  0  0  0  0  0  0  0  0
    1.4631    0.5600    0.0000 H   0  0  0  0  0  0  0  0  0  0  0  0
    6.6592    3.5600    0.0000 H   0  0  0  0  0  0  0  0  0  0  0  0
    8.0622    1.1300    0.0000 H   0  0  0  0  0  0  0  0  0  0  0  0
    2.3291    2.0600    0.0000 H   0  0  0  0  0  0  0  0  0  0  0  0
    6.3301    1.1300    0.0000 H   0  0  0  0  0  0  0  0  0  0  0  0
    4.5981    4.3700    0.0000 H   0  0  0  0  0  0  0  0  0  0  0  0
    3.1760    4.2869    0.0000 H   0  0  0  0  0  0  0  0  0  0  0  0
    2.3291    4.0600    0.0000 H   0  0  0  0  0  0  0  0  0  0  0  0
    2.5560    3.2131    0.0000 H   0  0  0  0  0  0  0  0  0  0  0  0
  1  3  2  0  0  0  0
  1  4  2  0  0  0  0
  1  6  1  0  0  0  0
  1 21  1  0  0  0  0
  2 16  1  0  0  0  0
  2 22  1  0  0  0  0
  5 11  1  0  0  0  0
  5 12  1  0  0  0  0
  5 15  1  0  0  0  0
  6 17  1  0  0  0  0
  6 50  1  0  0  0  0
  7 25  1  0  0  0  0
  7 33  1  0  0  0  0
  7 68  1  0  0  0  0
  8 30  1  0  0  0  0
  8 35  1  0  0  0  0
  8 69  1  0  0  0  0
  9 33  2  0  0  0  0
  9 35  1  0  0  0  0
 10 35  2  0  0  0  0
 10 36  1  0  0  0  0
 11 13  1  0  0  0  0
 11 38  1  0  0  0  0
 11 39  1  0  0  0  0
 12 14  1  0  0  0  0
 12 40  1  0  0  0  0
 12 41  1  0  0  0  0
 13 14  1  0  0  0  0
 13 42  1  0  0  0  0
 13 43  1  0  0  0  0
 14 44  1  0  0  0  0
 14 45  1  0  0  0  0
 15 16  1  0  0  0  0
 15 46  1  0  0  0  0
 15 47  1  0  0  0  0
 16 48  1  0  0  0  0
 16 49  1  0  0  0  0
 17 18  1  0  0  0  0
 17 19  1  0  0  0  0
 17 20  1  0  0  0  0
 18 51  1  0  0  0  0
 18 52  1  0  0  0  0
 18 53  1  0  0  0  0
 19 54  1  0  0  0  0
 19 55  1  0  0  0  0
 19 56  1  0  0  0  0
 20 57  1  0  0  0  0
 20 58  1  0  0  0  0
 20 59  1  0  0  0  0
 21 23  1  0  0  0  0
 21 24  2  0  0  0  0
 22 26  2  0  0  0  0
 22 27  1  0  0  0  0
 23 25  2  0  0  0  0
 23 60  1  0  0  0  0
 24 28  1  0  0  0  0
 24 61  1  0  0  0  0
 25 29  1  0  0  0  0
 26 31  1  0  0  0  0
 26 62  1  0  0  0  0
 27 32  2  0  0  0  0
 27 63  1  0  0  0  0
 28 29  2  0  0  0  0
 28 64  1  0  0  0  0
 29 65  1  0  0  0  0
 30 31  2  0  0  0  0
 30 32  1  0  0  0  0
 31 66  1  0  0  0  0
 32 67  1  0  0  0  0
 33 34  1  0  0  0  0
 34 36  2  0  0  0  0
 34 37  1  0  0  0  0
 36 70  1  0  0  0  0
 37 71  1  0  0  0  0
 37 72  1  0  0  0  0
 37 73  1  0  0  0  0
M  END
> <PUBCHEM_COMPOUND_CID>
16722836

> <PUBCHEM_COMPOUND_CANONICALIZED>
1

> <PUBCHEM_CACTVS_COMPLEXITY>
787

> <PUBCHEM_CACTVS_HBOND_ACCEPTOR>
9

> <PUBCHEM_CACTVS_HBOND_DONOR>
3

> <PUBCHEM_CACTVS_ROTATABLE_BOND>
11

> <PUBCHEM_CACTVS_SUBSKEYS>
AAADcfB7sABAAAAAAAAAAAAAAAAAAWAAAAA8YIAAAAAAAAAB0AAAHgQQQAAADIzh2gY/95fIFAKgAjZnZHDCiDkxIqAJ2DgubJiOLuLE+duHPCzs0BPY6CewQAAAAEAAACAAAAAAgAAAQAAAAAAAAAAAAA==

> <PUBCHEM_IUPAC_OPENEYE_NAME>
N-tert-butyl-3-[[5-methyl-2-[4-(2-pyrrolidin-1-ylethoxy)anilino]pyrimidin-4-yl]amino]benzenesulfonamide

> <PUBCHEM_IUPAC_CAS_NAME>
N-tert-butyl-3-[[5-methyl-2-[4-[2-(1-pyrrolidinyl)ethoxy]anilino]-4-pyrimidinyl]amino]benzenesulfonamide

> <PUBCHEM_IUPAC_NAME>
N-tert-butyl-3-[[5-methyl-2-[4-(2-pyrrolidin-1-ylethoxy)anilino]pyrimidin-4-yl]amino]benzenesulfonamide

> <PUBCHEM_IUPAC_SYSTEMATIC_NAME>
N-tert-butyl-3-[[5-methyl-2-[[4-(2-pyrrolidin-1-ylethoxy)phenyl]amino]pyrimidin-4-yl]amino]benzenesulfonamide

> <PUBCHEM_IUPAC_TRADITIONAL_NAME>
N-tert-butyl-3-[[5-methyl-2-[4-(2-pyrrolidinoethoxy)anilino]pyrimidin-4-yl]amino]benzenesulfonamide

> <PUBCHEM_IUPAC_INCHI>
InChI=1S/C27H36N6O3S/c1-20-19-28-26(30-21-10-12-23(13-11-21)36-17-16-33-14-5-6-15-33)31-25(20)29-22-8-7-9-24(18-22)37(34,35)32-27(2,3)4/h7-13,18-19,32H,5-6,14-17H2,1-4H3,(H2,28,29,30,31)

> <PUBCHEM_IUPAC_INCHIKEY>
JOOXLOJCABQBSG-UHFFFAOYSA-N

> <PUBCHEM_XLOGP3_AA>
4.8

> <PUBCHEM_EXACT_MASS>
524.257

> <PUBCHEM_MOLECULAR_FORMULA>
C27H36N6O3S

> <PUBCHEM_MOLECULAR_WEIGHT>
524.684

> <PUBCHEM_OPENEYE_CAN_SMILES>
CC1=CN=C(N=C1NC2=CC(=CC=C2)S(=O)(=O)NC(C)(C)C)NC3=CC=C(C=C3)OCCN4CCCC4

> <PUBCHEM_OPENEYE_ISO_SMILES>
CC1=CN=C(N=C1NC2=CC(=CC=C2)S(=O)(=O)NC(C)(C)C)NC3=CC=C(C=C3)OCCN4CCCC4

> <PUBCHEM_CACTVS_TPSA>
117

> <PUBCHEM_MONOISOTOPIC_WEIGHT>
524.257

> <PUBCHEM_TOTAL_CHARGE>
0

> <PUBCHEM_HEAVY_ATOM_COUNT>
37

> <PUBCHEM_ATOM_DEF_STEREO_COUNT>
0

> <PUBCHEM_ATOM_UDEF_STEREO_COUNT>
0

> <PUBCHEM_BOND_DEF_STEREO_COUNT>
0

> <PUBCHEM_BOND_UDEF_STEREO_COUNT>
0

> <PUBCHEM_ISOTOPIC_ATOM_COUNT>
0

> <PUBCHEM_COMPONENT_COUNT>
1

> <PUBCHEM_CACTVS_TAUTO_COUNT>
9

> <PUBCHEM_COORDINATE_TYPE>
1
5
255

> <PUBCHEM_BONDANNOTATIONS>
10  35  8
10  36  8
21  23  8
21  24  8
22  26  8
22  27  8
23  25  8
24  28  8
25  29  8
26  31  8
27  32  8
28  29  8
30  31  8
30  32  8
33  34  8
34  36  8
9  33  8
9  35  8

$$$$
15983966
  -OEChem-11021605012D

 66 70  0     1  0  0  0  0  0999 V2000
   10.2706   -1.1320    0.0000 S   0  0  0  0  0  0  0  0  0  0  0  0
    9.5871    3.8016    0.0000 F   0  0  0  0  0  0  0  0  0  0  0  0
   10.3553    2.6142    0.0000 F   0  0  0  0  0  0  0  0  0  0  0  0
    9.1679    1.8460    0.0000 F   0  0  0  0  0  0  0  0  0  0  0  0
    9.0145    1.1302    0.0000 O   0  0  0  0  0  0  0  0  0  0  0  0
   10.9796    1.4491    0.0000 O   0  0  0  0  0  0  0  0  0  0  0  0
    4.5981   -2.6946    0.0000 N   0  0  0  0  0  0  0  0  0  0  0  0
    2.8660   -3.6946    0.0000 N   0  0  0  0  0  0  0  0  0  0  0  0
    9.0084   -2.3899    0.0000 N   0  0  0  0  0  0  0  0  0  0  0  0
    9.0084   -3.9994    0.0000 N   0  0  0  0  0  0  0  0  0  0  0  0
   11.9953    0.0461    0.0000 N   0  0  0  0  0  0  0  0  0  0  0  0
    3.7320   -2.1946    0.0000 C   0  0  0  0  0  0  0  0  0  0  0  0
    4.5981   -3.6946    0.0000 C   0  0  0  0  0  0  0  0  0  0  0  0
    3.7320   -4.1946    0.0000 C   0  0  0  0  0  0  0  0  0  0  0  0
    2.8660   -2.6946    0.0000 C   0  0  0  0  0  0  0  0  0  0  0  0
    5.4641   -2.1946    0.0000 C   0  0  0  0  0  0  0  0  0  0  0  0
    6.3301   -2.6946    0.0000 C   0  0  0  0  0  0  0  0  0  0  0  0
    2.0000   -4.1946    0.0000 C   0  0  0  0  0  0  0  0  0  0  0  0
    7.1962   -2.1946    0.0000 C   0  0  0  0  0  0  0  0  0  0  0  0
    8.0622   -2.6946    0.0000 C   0  0  0  0  0  0  0  0  0  0  0  0
    6.3301   -3.6946    0.0000 C   0  0  0  0  0  0  0  0  0  0  0  0
    8.0622   -3.6946    0.0000 C   0  0  0  0  0  0  0  0  0  0  0  0
    7.1962   -4.1946    0.0000 C   0  0  0  0  0  0  0  0  0  0  0  0
    9.3191   -1.4394    0.0000 C   0  0  0  0  0  0  0  0  0  0  0  0
    9.5920   -3.1946    0.0000 C   0  0  0  0  0  0  0  0  0  0  0  0
    8.7327   -0.6293    0.0000 C   0  0  0  0  0  0  0  0  0  0  0  0
    8.0367    1.3398    0.0000 C   0  0  1  0  0  0  0  0  0  0  0  0
    9.3219    0.1787    0.0000 C   0  0  0  0  0  0  0  0  0  0  0  0
    7.7293    2.2914    0.0000 C   0  0  0  0  0  0  0  0  0  0  0  0
   10.2724   -0.1320    0.0000 C   0  0  0  0  0  0  0  0  0  0  0  0
    8.3997    3.0334    0.0000 C   0  0  0  0  0  0  0  0  0  0  0  0
    7.3663    0.5979    0.0000 C   0  0  0  0  0  0  0  0  0  0  0  0
    6.7516    2.5011    0.0000 C   0  0  0  0  0  0  0  0  0  0  0  0
    8.0924    3.9850    0.0000 C   0  0  0  0  0  0  0  0  0  0  0  0
   11.0824    0.4544    0.0000 C   0  0  0  0  0  0  0  0  0  0  0  0
    9.3775    2.8238    0.0000 C   0  0  0  0  0  0  0  0  0  0  0  0
    6.4442    3.4526    0.0000 C   0  0  0  0  0  0  0  0  0  0  0  0
    7.1146    4.1946    0.0000 C   0  0  0  0  0  0  0  0  0  0  0  0
    4.1306   -1.7197    0.0000 H   0  0  0  0  0  0  0  0  0  0  0  0
    3.3335   -1.7197    0.0000 H   0  0  0  0  0  0  0  0  0  0  0  0
    4.8101   -4.2772    0.0000 H   0  0  0  0  0  0  0  0  0  0  0  0
    5.2087   -3.5870    0.0000 H   0  0  0  0  0  0  0  0  0  0  0  0
    3.3335   -4.6696    0.0000 H   0  0  0  0  0  0  0  0  0  0  0  0
    4.1306   -4.6696    0.0000 H   0  0  0  0  0  0  0  0  0  0  0  0
    2.6540   -2.1120    0.0000 H   0  0  0  0  0  0  0  0  0  0  0  0
    2.2554   -2.8023    0.0000 H   0  0  0  0  0  0  0  0  0  0  0  0
    5.8626   -1.7197    0.0000 H   0  0  0  0  0  0  0  0  0  0  0  0
    5.0656   -1.7197    0.0000 H   0  0  0  0  0  0  0  0  0  0  0  0
    1.6900   -3.6577    0.0000 H   0  0  0  0  0  0  0  0  0  0  0  0
    1.4631   -4.5046    0.0000 H   0  0  0  0  0  0  0  0  0  0  0  0
    2.3100   -4.7316    0.0000 H   0  0  0  0  0  0  0  0  0  0  0  0
    7.1962   -1.5746    0.0000 H   0  0  0  0  0  0  0  0  0  0  0  0
    5.7932   -4.0046    0.0000 H   0  0  0  0  0  0  0  0  0  0  0  0
    7.1962   -4.8146    0.0000 H   0  0  0  0  0  0  0  0  0  0  0  0
   10.2120   -3.1946    0.0000 H   0  0  0  0  0  0  0  0  0  0  0  0
    8.4524    1.7999    0.0000 H   0  0  0  0  0  0  0  0  0  0  0  0
    8.1127   -0.6283    0.0000 H   0  0  0  0  0  0  0  0  0  0  0  0
    6.9063    1.0135    0.0000 H   0  0  0  0  0  0  0  0  0  0  0  0
    6.9506    0.1378    0.0000 H   0  0  0  0  0  0  0  0  0  0  0  0
    7.8263    0.1822    0.0000 H   0  0  0  0  0  0  0  0  0  0  0  0
    6.3359    2.0410    0.0000 H   0  0  0  0  0  0  0  0  0  0  0  0
    8.5080    4.4450    0.0000 H   0  0  0  0  0  0  0  0  0  0  0  0
    5.8380    3.5826    0.0000 H   0  0  0  0  0  0  0  0  0  0  0  0
    6.9240    4.7846    0.0000 H   0  0  0  0  0  0  0  0  0  0  0  0
   12.4975    0.4096    0.0000 H   0  0  0  0  0  0  0  0  0  0  0  0
   12.0590   -0.5706    0.0000 H   0  0  0  0  0  0  0  0  0  0  0  0
  1 24  1  0  0  0  0
  1 30  1  0  0  0  0
  2 36  1  0  0  0  0
  3 36  1  0  0  0  0
  4 36  1  0  0  0  0
 27  5  1  6  0  0  0
  5 28  1  0  0  0  0
  6 35  2  0  0  0  0
  7 12  1  0  0  0  0
  7 13  1  0  0  0  0
  7 16  1  0  0  0  0
  8 14  1  0  0  0  0
  8 15  1  0  0  0  0
  8 18  1  0  0  0  0
  9 20  1  0  0  0  0
  9 24  1  0  0  0  0
  9 25  1  0  0  0  0
 10 22  1  0  0  0  0
 10 25  2  0  0  0  0
 11 35  1  0  0  0  0
 11 65  1  0  0  0  0
 11 66  1  0  0  0  0
 12 15  1  0  0  0  0
 12 39  1  0  0  0  0
 12 40  1  0  0  0  0
 13 14  1  0  0  0  0
 13 41  1  0  0  0  0
 13 42  1  0  0  0  0
 14 43  1  0  0  0  0
 14 44  1  0  0  0  0
 15 45  1  0  0  0  0
 15 46  1  0  0  0  0
 16 17  1  0  0  0  0
 16 47  1  0  0  0  0
 16 48  1  0  0  0  0
 17 19  2  0  0  0  0
 17 21  1  0  0  0  0
 18 49  1  0  0  0  0
 18 50  1  0  0  0  0
 18 51  1  0  0  0  0
 19 20  1  0  0  0  0
 19 52  1  0  0  0  0
 20 22  2  0  0  0  0
 21 23  2  0  0  0  0
 21 53  1  0  0  0  0
 22 23  1  0  0  0  0
 23 54  1  0  0  0  0
 24 26  2  0  0  0  0
 25 55  1  0  0  0  0
 26 28  1  0  0  0  0
 26 57  1  0  0  0  0
 27 29  1  0  0  0  0
 27 32  1  0  0  0  0
 27 56  1  0  0  0  0
 28 30  2  0  0  0  0
 29 31  1  0  0  0  0
 29 33  2  0  0  0  0
 30 35  1  0  0  0  0
 31 34  2  0  0  0  0
 31 36  1  0  0  0  0
 32 58  1  0  0  0  0
 32 59  1  0  0  0  0
 32 60  1  0  0  0  0
 33 37  1  0  0  0  0
 33 61  1  0  0  0  0
 34 38  1  0  0  0  0
 34 62  1  0  0  0  0
 37 38  2  0  0  0  0
 37 63  1  0  0  0  0
 38 64  1  0  0  0  0
M  END
> <PUBCHEM_COMPOUND_CID>
15983966

> <PUBCHEM_COMPOUND_CANONICALIZED>
1

> <PUBCHEM_CACTVS_COMPLEXITY>
814

> <PUBCHEM_CACTVS_HBOND_ACCEPTOR>
9

> <PUBCHEM_CACTVS_HBOND_DONOR>
1

> <PUBCHEM_CACTVS_ROTATABLE_BOND>
7

> <PUBCHEM_CACTVS_SUBSKEYS>
AAADceB7sYBAAAAAAAAAAAAAAAAAAWJAAAA8YIAAAAAAAFgB/AAAHwQQAAAADBzh3hY317dMFAisAyVzdACDiK11OrhJ2Ds+fNiMbvbkvZmWOWju4Avo6SeYwaAOiAAAQAAQACAQAACAACAAQAAAAAAAAA==

> <PUBCHEM_IUPAC_OPENEYE_NAME>
5-[6-[(4-methylpiperazin-1-yl)methyl]benzimidazol-1-yl]-3-[(1R)-1-[2-(trifluoromethyl)phenyl]ethoxy]thiophene-2-carboxamide

> <PUBCHEM_IUPAC_CAS_NAME>
5-[6-[(4-methyl-1-piperazinyl)methyl]-1-benzimidazolyl]-3-[(1R)-1-[2-(trifluoromethyl)phenyl]ethoxy]-2-thiophenecarboxamide

> <PUBCHEM_IUPAC_NAME>
5-[6-[(4-methylpiperazin-1-yl)methyl]benzimidazol-1-yl]-3-[(1R)-1-[2-(trifluoromethyl)phenyl]ethoxy]thiophene-2-carboxamide

> <PUBCHEM_IUPAC_SYSTEMATIC_NAME>
5-[6-[(4-methylpiperazin-1-yl)methyl]benzimidazol-1-yl]-3-[(1R)-1-[2-(trifluoromethyl)phenyl]ethoxy]thiophene-2-carboxamide

> <PUBCHEM_IUPAC_TRADITIONAL_NAME>
5-[6-[(4-methylpiperazino)methyl]benzimidazol-1-yl]-3-[(1R)-1-[2-(trifluoromethyl)phenyl]ethoxy]thiophene-2-carboxamide

> <PUBCHEM_IUPAC_INCHI>
InChI=1S/C27H28F3N5O2S/c1-17(19-5-3-4-6-20(19)27(28,29)30)37-23-14-24(38-25(23)26(31)36)35-16-32-21-8-7-18(13-22(21)35)15-34-11-9-33(2)10-12-34/h3-8,13-14,16-17H,9-12,15H2,1-2H3,(H2,31,36)/t17-/m1/s1

> <PUBCHEM_IUPAC_INCHIKEY>
ZHJGWYRLJUCMRT-QGZVFWFLSA-N

> <PUBCHEM_XLOGP3_AA>
4.7

> <PUBCHEM_EXACT_MASS>
543.192

> <PUBCHEM_MOLECULAR_FORMULA>
C27H28F3N5O2S

> <PUBCHEM_MOLECULAR_WEIGHT>
543.609

> <PUBCHEM_OPENEYE_CAN_SMILES>
CC(C1=CC=CC=C1C(F)(F)F)OC2=C(SC(=C2)N3C=NC4=C3C=C(C=C4)CN5CCN(CC5)C)C(=O)N

> <PUBCHEM_OPENEYE_ISO_SMILES>
C[C@H](C1=CC=CC=C1C(F)(F)F)OC2=C(SC(=C2)N3C=NC4=C3C=C(C=C4)CN5CCN(CC5)C)C(=O)N

> <PUBCHEM_CACTVS_TPSA>
105

> <PUBCHEM_MONOISOTOPIC_WEIGHT>
543.192

> <PUBCHEM_TOTAL_CHARGE>
0

> <PUBCHEM_HEAVY_ATOM_COUNT>
38

> <PUBCHEM_ATOM_DEF_STEREO_COUNT>
1

> <PUBCHEM_ATOM_UDEF_STEREO_COUNT>
0

> <PUBCHEM_BOND_DEF_STEREO_COUNT>
0

> <PUBCHEM_BOND_UDEF_STEREO_COUNT>
0

> <PUBCHEM_ISOTOPIC_ATOM_COUNT>
0

> <PUBCHEM_COMPONENT_COUNT>
1

> <PUBCHEM_CACTVS_TAUTO_COUNT>
2

> <PUBCHEM_COORDINATE_TYPE>
1
5
255

> <PUBCHEM_BONDANNOTATIONS>
1  24  8
1  30  8
10  22  8
10  25  8
17  19  8
17  21  8
19  20  8
20  22  8
21  23  8
22  23  8
24  26  8
26  28  8
28  30  8
29  31  8
29  33  8
31  34  8
33  37  8
34  38  8
37  38  8
27  5  6
9  20  8
9  25  8

$$$$
11626560
  -OEChem-11021605012D

 52 55  0     1  0  0  0  0  0999 V2000
    6.8671    1.8512    0.0000 Cl  0  0  0  0  0  0  0  0  0  0  0  0
    3.4030    1.8512    0.0000 Cl  0  0  0  0  0  0  0  0  0  0  0  0
    6.8671    3.8512    0.0000 F   0  0  0  0  0  0  0  0  0  0  0  0
    4.2690    0.3512    0.0000 O   0  0  0  0  0  0  0  0  0  0  0  0
    7.5837   -2.9852    0.0000 N   0  0  0  0  0  0  0  0  0  0  0  0
   10.5673   -2.6716    0.0000 N   0  0  0  0  0  0  0  0  0  0  0  0
    7.0837   -3.8512    0.0000 N   0  0  0  0  0  0  0  0  0  0  0  0
    3.4030   -2.1488    0.0000 N   0  0  0  0  0  0  0  0  0  0  0  0
    2.5369   -0.6488    0.0000 N   0  0  0  0  0  0  0  0  0  0  0  0
    8.5782   -2.8807    0.0000 C   0  0  0  0  0  0  0  0  0  0  0  0
    9.1660   -3.6897    0.0000 C   0  0  0  0  0  0  0  0  0  0  0  0
    8.9850   -1.9671    0.0000 C   0  0  0  0  0  0  0  0  0  0  0  0
    9.9795   -1.8626    0.0000 C   0  0  0  0  0  0  0  0  0  0  0  0
   10.1605   -3.5852    0.0000 C   0  0  0  0  0  0  0  0  0  0  0  0
    6.9146   -2.2420    0.0000 C   0  0  0  0  0  0  0  0  0  0  0  0
    6.0010   -2.6488    0.0000 C   0  0  0  0  0  0  0  0  0  0  0  0
    6.1056   -3.6433    0.0000 C   0  0  0  0  0  0  0  0  0  0  0  0
    5.1350   -2.1488    0.0000 C   0  0  0  0  0  0  0  0  0  0  0  0
    5.1350   -1.1488    0.0000 C   0  0  0  0  0  0  0  0  0  0  0  0
    4.2690   -2.6488    0.0000 C   0  0  0  0  0  0  0  0  0  0  0  0
    4.2690   -0.6488    0.0000 C   0  0  0  0  0  0  0  0  0  0  0  0
    5.1350    0.8512    0.0000 C   0  0  1  0  0  0  0  0  0  0  0  0
    3.4030   -1.1488    0.0000 C   0  0  0  0  0  0  0  0  0  0  0  0
    5.1350    1.8512    0.0000 C   0  0  0  0  0  0  0  0  0  0  0  0
    6.0010    0.3512    0.0000 C   0  0  0  0  0  0  0  0  0  0  0  0
    6.0010    2.3512    0.0000 C   0  0  0  0  0  0  0  0  0  0  0  0
    4.2690    2.3512    0.0000 C   0  0  0  0  0  0  0  0  0  0  0  0
    6.0010    3.3512    0.0000 C   0  0  0  0  0  0  0  0  0  0  0  0
    4.2690    3.3512    0.0000 C   0  0  0  0  0  0  0  0  0  0  0  0
    5.1350    3.8512    0.0000 C   0  0  0  0  0  0  0  0  0  0  0  0
    8.3261   -3.4471    0.0000 H   0  0  0  0  0  0  0  0  0  0  0  0
    9.0282   -1.3486    0.0000 H   0  0  0  0  0  0  0  0  0  0  0  0
    8.3834   -1.8171    0.0000 H   0  0  0  0  0  0  0  0  0  0  0  0
    8.6088   -3.9615    0.0000 H   0  0  0  0  0  0  0  0  0  0  0  0
    9.3369   -4.2857    0.0000 H   0  0  0  0  0  0  0  0  0  0  0  0
   10.5367   -1.5908    0.0000 H   0  0  0  0  0  0  0  0  0  0  0  0
    9.8086   -1.2666    0.0000 H   0  0  0  0  0  0  0  0  0  0  0  0
   10.1173   -4.2036    0.0000 H   0  0  0  0  0  0  0  0  0  0  0  0
   10.7621   -3.7351    0.0000 H   0  0  0  0  0  0  0  0  0  0  0  0
   11.1839   -2.6068    0.0000 H   0  0  0  0  0  0  0  0  0  0  0  0
    7.0435   -1.6356    0.0000 H   0  0  0  0  0  0  0  0  0  0  0  0
    5.6448   -4.0582    0.0000 H   0  0  0  0  0  0  0  0  0  0  0  0
    5.6720   -0.8388    0.0000 H   0  0  0  0  0  0  0  0  0  0  0  0
    4.2690   -3.2688    0.0000 H   0  0  0  0  0  0  0  0  0  0  0  0
    5.1350    0.2312    0.0000 H   0  0  0  0  0  0  0  0  0  0  0  0
    5.6910   -0.1857    0.0000 H   0  0  0  0  0  0  0  0  0  0  0  0
    6.5380    0.0412    0.0000 H   0  0  0  0  0  0  0  0  0  0  0  0
    6.3110    0.8882    0.0000 H   0  0  0  0  0  0  0  0  0  0  0  0
    3.7320    3.6612    0.0000 H   0  0  0  0  0  0  0  0  0  0  0  0
    2.0000   -0.9588    0.0000 H   0  0  0  0  0  0  0  0  0  0  0  0
    2.5369   -0.0288    0.0000 H   0  0  0  0  0  0  0  0  0  0  0  0
    5.1350    4.4712    0.0000 H   0  0  0  0  0  0  0  0  0  0  0  0
  1 26  1  0  0  0  0
  2 27  1  0  0  0  0
  3 28  1  0  0  0  0
  4 21  1  0  0  0  0
 22  4  1  1  0  0  0
  5  7  1  0  0  0  0
  5 10  1  0  0  0  0
  5 15  1  0  0  0  0
  6 13  1  0  0  0  0
  6 14  1  0  0  0  0
  6 40  1  0  0  0  0
  7 17  2  0  0  0  0
  8 20  2  0  0  0  0
  8 23  1  0  0  0  0
  9 23  1  0  0  0  0
  9 50  1  0  0  0  0
  9 51  1  0  0  0  0
 10 11  1  0  0  0  0
 10 12  1  0  0  0  0
 10 31  1  0  0  0  0
 11 14  1  0  0  0  0
 11 34  1  0  0  0  0
 11 35  1  0  0  0  0
 12 13  1  0  0  0  0
 12 32  1  0  0  0  0
 12 33  1  0  0  0  0
 13 36  1  0  0  0  0
 13 37  1  0  0  0  0
 14 38  1  0  0  0  0
 14 39  1  0  0  0  0
 15 16  2  0  0  0  0
 15 41  1  0  0  0  0
 16 17  1  0  0  0  0
 16 18  1  0  0  0  0
 17 42  1  0  0  0  0
 18 19  2  0  0  0  0
 18 20  1  0  0  0  0
 19 21  1  0  0  0  0
 19 43  1  0  0  0  0
 20 44  1  0  0  0  0
 21 23  2  0  0  0  0
 22 24  1  0  0  0  0
 22 25  1  0  0  0  0
 22 45  1  0  0  0  0
 24 26  1  0  0  0  0
 24 27  2  0  0  0  0
 25 46  1  0  0  0  0
 25 47  1  0  0  0  0
 25 48  1  0  0  0  0
 26 28  2  0  0  0  0
 27 29  1  0  0  0  0
 28 30  1  0  0  0  0
 29 30  2  0  0  0  0
 29 49  1  0  0  0  0
 30 52  1  0  0  0  0
M  END
> <PUBCHEM_COMPOUND_CID>
11626560

> <PUBCHEM_COMPOUND_CANONICALIZED>
1

> <PUBCHEM_CACTVS_COMPLEXITY>
558

> <PUBCHEM_CACTVS_HBOND_ACCEPTOR>
6

> <PUBCHEM_CACTVS_HBOND_DONOR>
2

> <PUBCHEM_CACTVS_ROTATABLE_BOND>
5

> <PUBCHEM_CACTVS_SUBSKEYS>
AAADceB7oQAGAAAAAAAAAAAAAAAAAWAAAAA8WIAAAAAAAAAB8AAAHwIYAAAADD7hmi4/tpLIFACiAjJnZASSjCkx5SAY2KAvTpiOJuLF89uHvCjk2BPY6Cew0KIOgAAAAACBAAAAAAAAAQIAAAAAAAAAAA==

> <PUBCHEM_IUPAC_OPENEYE_NAME>
3-[(1R)-1-(2,6-dichloro-3-fluoro-phenyl)ethoxy]-5-[1-(4-piperidyl)pyrazol-4-yl]pyridin-2-amine

> <PUBCHEM_IUPAC_CAS_NAME>
3-[(1R)-1-(2,6-dichloro-3-fluorophenyl)ethoxy]-5-[1-(4-piperidinyl)-4-pyrazolyl]-2-pyridinamine

> <PUBCHEM_IUPAC_NAME>
3-[(1R)-1-(2,6-dichloro-3-fluorophenyl)ethoxy]-5-(1-piperidin-4-ylpyrazol-4-yl)pyridin-2-amine

> <PUBCHEM_IUPAC_SYSTEMATIC_NAME>
3-[(1R)-1-[2,6-bis(chloranyl)-3-fluoranyl-phenyl]ethoxy]-5-(1-piperidin-4-ylpyrazol-4-yl)pyridin-2-amine

> <PUBCHEM_IUPAC_TRADITIONAL_NAME>
[3-[(1R)-1-(2,6-dichloro-3-fluoro-phenyl)ethoxy]-5-[1-(4-piperidyl)pyrazol-4-yl]-2-pyridyl]amine

> <PUBCHEM_IUPAC_INCHI>
InChI=1S/C21H22Cl2FN5O/c1-12(19-16(22)2-3-17(24)20(19)23)30-18-8-13(9-27-21(18)25)14-10-28-29(11-14)15-4-6-26-7-5-15/h2-3,8-12,15,26H,4-7H2,1H3,(H2,25,27)/t12-/m1/s1

> <PUBCHEM_IUPAC_INCHIKEY>
KTEIFNKAUNYNJU-GFCCVEGCSA-N

> <PUBCHEM_XLOGP3_AA>
3.7

> <PUBCHEM_EXACT_MASS>
449.119

> <PUBCHEM_MOLECULAR_FORMULA>
C21H22Cl2FN5O

> <PUBCHEM_MOLECULAR_WEIGHT>
450.339

> <PUBCHEM_OPENEYE_CAN_SMILES>
CC(C1=C(C=CC(=C1Cl)F)Cl)OC2=C(N=CC(=C2)C3=CN(N=C3)C4CCNCC4)N

> <PUBCHEM_OPENEYE_ISO_SMILES>
C[C@H](C1=C(C=CC(=C1Cl)F)Cl)OC2=C(N=CC(=C2)C3=CN(N=C3)C4CCNCC4)N

> <PUBCHEM_CACTVS_TPSA>
78

> <PUBCHEM_MONOISOTOPIC_WEIGHT>
449.119

> <PUBCHEM_TOTAL_CHARGE>
0

> <PUBCHEM_HEAVY_ATOM_COUNT>
30

> <PUBCHEM_ATOM_DEF_STEREO_COUNT>
1

> <PUBCHEM_ATOM_UDEF_STEREO_COUNT>
0

> <PUBCHEM_BOND_DEF_STEREO_COUNT>
0

> <PUBCHEM_BOND_UDEF_STEREO_COUNT>
0

> <PUBCHEM_ISOTOPIC_ATOM_COUNT>
0

> <PUBCHEM_COMPONENT_COUNT>
1

> <PUBCHEM_CACTVS_TAUTO_COUNT>
2

> <PUBCHEM_COORDINATE_TYPE>
1
5
255

> <PUBCHEM_BONDANNOTATIONS>
15  16  8
16  17  8
18  19  8
18  20  8
19  21  8
21  23  8
24  26  8
24  27  8
26  28  8
27  29  8
28  30  8
29  30  8
22  4  5
5  15  8
5  7  8
7  17  8
8  20  8
8  23  8

$$$$
10427712
  -OEChem-11021605012D

 40 43  0     0  0  0  0  0  0999 V2000
    2.5369   -1.1550    0.0000 O   0  0  0  0  0  0  0  0  0  0  0  0
    4.2690    2.8450    0.0000 O   0  0  0  0  0  0  0  0  0  0  0  0
    6.8671   -1.6550    0.0000 N   0  0  0  0  0  0  0  0  0  0  0  0
    6.8671    0.3450    0.0000 N   0  0  0  0  0  0  0  0  0  0  0  0
    8.6270    0.3797    0.0000 N   0  0  0  0  0  0  0  0  0  0  0  0
    9.5331   -1.1758    0.0000 N   0  0  0  0  0  0  0  0  0  0  0  0
    8.6155   -2.6896    0.0000 N   0  0  0  0  0  0  0  0  0  0  0  0
   10.3972    0.3692    0.0000 N   0  0  0  0  0  0  0  0  0  0  0  0
    6.0010   -1.1550    0.0000 C   0  0  0  0  0  0  0  0  0  0  0  0
    6.0010   -0.1550    0.0000 C   0  0  0  0  0  0  0  0  0  0  0  0
    5.1350   -1.6550    0.0000 C   0  0  0  0  0  0  0  0  0  0  0  0
    5.1350    0.3450    0.0000 C   0  0  0  0  0  0  0  0  0  0  0  0
    7.7331   -1.1550    0.0000 C   0  0  0  0  0  0  0  0  0  0  0  0
    7.7331   -0.1550    0.0000 C   0  0  0  0  0  0  0  0  0  0  0  0
    4.2690   -1.1550    0.0000 C   0  0  0  0  0  0  0  0  0  0  0  0
    5.1350    1.3450    0.0000 C   0  0  0  0  0  0  0  0  0  0  0  0
    5.1350   -2.6550    0.0000 C   0  0  0  0  0  0  0  0  0  0  0  0
    4.2690   -0.1550    0.0000 C   0  0  0  0  0  0  0  0  0  0  0  0
    8.6270   -1.6897    0.0000 C   0  0  0  0  0  0  0  0  0  0  0  0
    3.4030   -1.6550    0.0000 C   0  0  0  0  0  0  0  0  0  0  0  0
    4.2690    1.8450    0.0000 C   0  0  0  0  0  0  0  0  0  0  0  0
    4.2690   -3.1550    0.0000 C   0  0  0  0  0  0  0  0  0  0  0  0
    3.4030    0.3450    0.0000 C   0  0  0  0  0  0  0  0  0  0  0  0
    3.4030   -2.6550    0.0000 C   0  0  0  0  0  0  0  0  0  0  0  0
    3.4030    1.3450    0.0000 C   0  0  0  0  0  0  0  0  0  0  0  0
    9.5331   -0.1342    0.0000 C   0  0  0  0  0  0  0  0  0  0  0  0
    4.2690   -0.5350    0.0000 H   0  0  0  0  0  0  0  0  0  0  0  0
    5.6720    1.6550    0.0000 H   0  0  0  0  0  0  0  0  0  0  0  0
    5.6720   -2.9650    0.0000 H   0  0  0  0  0  0  0  0  0  0  0  0
    4.2690   -0.7750    0.0000 H   0  0  0  0  0  0  0  0  0  0  0  0
    4.2690   -3.7750    0.0000 H   0  0  0  0  0  0  0  0  0  0  0  0
    2.8660    0.0350    0.0000 H   0  0  0  0  0  0  0  0  0  0  0  0
    2.8660   -2.9650    0.0000 H   0  0  0  0  0  0  0  0  0  0  0  0
    2.8660    1.6550    0.0000 H   0  0  0  0  0  0  0  0  0  0  0  0
    9.1488   -3.0058    0.0000 H   0  0  0  0  0  0  0  0  0  0  0  0
    8.0750   -2.9934    0.0000 H   0  0  0  0  0  0  0  0  0  0  0  0
   10.9353    0.0612    0.0000 H   0  0  0  0  0  0  0  0  0  0  0  0
   10.3948    0.9891    0.0000 H   0  0  0  0  0  0  0  0  0  0  0  0
    2.0000   -1.4650    0.0000 H   0  0  0  0  0  0  0  0  0  0  0  0
    3.7320    3.1550    0.0000 H   0  0  0  0  0  0  0  0  0  0  0  0
  1 20  1  0  0  0  0
  1 39  1  0  0  0  0
  2 21  1  0  0  0  0
  2 40  1  0  0  0  0
  3  9  2  0  0  0  0
  3 13  1  0  0  0  0
  4 10  2  0  0  0  0
  4 14  1  0  0  0  0
  5 14  2  0  0  0  0
  5 26  1  0  0  0  0
  6 19  1  0  0  0  0
  6 26  2  0  0  0  0
  7 19  1  0  0  0  0
  7 35  1  0  0  0  0
  7 36  1  0  0  0  0
  8 26  1  0  0  0  0
  8 37  1  0  0  0  0
  8 38  1  0  0  0  0
  9 10  1  0  0  0  0
  9 11  1  0  0  0  0
 10 12  1  0  0  0  0
 11 15  2  0  0  0  0
 11 17  1  0  0  0  0
 12 16  2  0  0  0  0
 12 18  1  0  0  0  0
 13 14  1  0  0  0  0
 13 19  2  0  0  0  0
 15 20  1  0  0  0  0
 15 27  1  0  0  0  0
 16 21  1  0  0  0  0
 16 28  1  0  0  0  0
 17 22  2  0  0  0  0
 17 29  1  0  0  0  0
 18 23  2  0  0  0  0
 18 30  1  0  0  0  0
 20 24  2  0  0  0  0
 21 25  2  0  0  0  0
 22 24  1  0  0  0  0
 22 31  1  0  0  0  0
 23 25  1  0  0  0  0
 23 32  1  0  0  0  0
 24 33  1  0  0  0  0
 25 34  1  0  0  0  0
M  END
> <PUBCHEM_COMPOUND_CID>
10427712

> <PUBCHEM_COMPOUND_CANONICALIZED>
1

> <PUBCHEM_CACTVS_COMPLEXITY>
483

> <PUBCHEM_CACTVS_HBOND_ACCEPTOR>
8

> <PUBCHEM_CACTVS_HBOND_DONOR>
4

> <PUBCHEM_CACTVS_ROTATABLE_BOND>
2

> <PUBCHEM_CACTVS_SUBSKEYS>
AAADccB7sAAAAAAAAAAAAAAAAAAAAAAAAAA8eIEAAAAAAACx/AAAHgAQCAAADAyBnwAx9r5IEgCgAyZiZACCgC0hMKAJmCAmXJiIbuLC2VOUdAhswBPI2Cew0PMOAAABAAAAAAAAAAIAAAAAAAAAAAAAAA==

> <PUBCHEM_IUPAC_OPENEYE_NAME>
3-[2,4-diamino-7-(3-hydroxyphenyl)pteridin-6-yl]phenol

> <PUBCHEM_IUPAC_CAS_NAME>
3-[2,4-diamino-7-(3-hydroxyphenyl)-6-pteridinyl]phenol

> <PUBCHEM_IUPAC_NAME>
3-[2,4-diamino-7-(3-hydroxyphenyl)pteridin-6-yl]phenol

> <PUBCHEM_IUPAC_SYSTEMATIC_NAME>
3-[2,4-bis(azanyl)-7-(3-hydroxyphenyl)pteridin-6-yl]phenol

> <PUBCHEM_IUPAC_TRADITIONAL_NAME>
3-[2,4-diamino-7-(3-hydroxyphenyl)pteridin-6-yl]phenol

> <PUBCHEM_IUPAC_INCHI>
InChI=1S/C18H14N6O2/c19-16-15-17(24-18(20)23-16)22-14(10-4-2-6-12(26)8-10)13(21-15)9-3-1-5-11(25)7-9/h1-8,25-26H,(H4,19,20,22,23,24)

> <PUBCHEM_IUPAC_INCHIKEY>
UJIAQDJKSXQLIT-UHFFFAOYSA-N

> <PUBCHEM_XLOGP3_AA>
1.7

> <PUBCHEM_EXACT_MASS>
346.118

> <PUBCHEM_MOLECULAR_FORMULA>
C18H14N6O2

> <PUBCHEM_MOLECULAR_WEIGHT>
346.35

> <PUBCHEM_OPENEYE_CAN_SMILES>
C1=CC(=CC(=C1)O)C2=NC3=C(N=C2C4=CC(=CC=C4)O)N=C(N=C3N)N

> <PUBCHEM_OPENEYE_ISO_SMILES>
C1=CC(=CC(=C1)O)C2=NC3=C(N=C2C4=CC(=CC=C4)O)N=C(N=C3N)N

> <PUBCHEM_CACTVS_TPSA>
144

> <PUBCHEM_MONOISOTOPIC_WEIGHT>
346.118

> <PUBCHEM_TOTAL_CHARGE>
0

> <PUBCHEM_HEAVY_ATOM_COUNT>
26

> <PUBCHEM_ATOM_DEF_STEREO_COUNT>
0

> <PUBCHEM_ATOM_UDEF_STEREO_COUNT>
0

> <PUBCHEM_BOND_DEF_STEREO_COUNT>
0

> <PUBCHEM_BOND_UDEF_STEREO_COUNT>
0

> <PUBCHEM_ISOTOPIC_ATOM_COUNT>
0

> <PUBCHEM_COMPONENT_COUNT>
1

> <PUBCHEM_CACTVS_TAUTO_COUNT>
189

> <PUBCHEM_COORDINATE_TYPE>
1
5
255

> <PUBCHEM_BONDANNOTATIONS>
11  15  8
11  17  8
12  16  8
12  18  8
13  14  8
13  19  8
15  20  8
16  21  8
17  22  8
18  23  8
20  24  8
21  25  8
22  24  8
23  25  8
3  13  8
3  9  8
4  10  8
4  14  8
5  14  8
5  26  8
6  19  8
6  26  8
9  10  8

$$$$
5328940
  -OEChem-11021605012D

 65 68  0     0  0  0  0  0  0999 V2000
    5.4641   -4.7704    0.0000 Cl  0  0  0  0  0  0  0  0  0  0  0  0
    2.0000   -4.7704    0.0000 Cl  0  0  0  0  0  0  0  0  0  0  0  0
    8.9942    0.2537    0.0000 O   0  0  0  0  0  0  0  0  0  0  0  0
    8.9942   -1.7946    0.0000 O   0  0  0  0  0  0  0  0  0  0  0  0
    2.0000   -2.7704    0.0000 O   0  0  0  0  0  0  0  0  0  0  0  0
   10.7147    3.2604    0.0000 N   0  0  0  0  0  0  0  0  0  0  0  0
   12.4429    4.2671    0.0000 N   0  0  0  0  0  0  0  0  0  0  0  0
    5.4641   -2.7704    0.0000 N   0  0  0  0  0  0  0  0  0  0  0  0
    5.4641    0.2296    0.0000 N   0  0  0  0  0  0  0  0  0  0  0  0
    2.8660   -2.2704    0.0000 N   0  0  0  0  0  0  0  0  0  0  0  0
   11.5826    2.7637    0.0000 C   0  0  0  0  0  0  0  0  0  0  0  0
   10.7108    4.2604    0.0000 C   0  0  0  0  0  0  0  0  0  0  0  0
   12.4467    3.2671    0.0000 C   0  0  0  0  0  0  0  0  0  0  0  0
   11.5749    4.7637    0.0000 C   0  0  0  0  0  0  0  0  0  0  0  0
    9.8506    2.7571    0.0000 C   0  0  0  0  0  0  0  0  0  0  0  0
    9.8545    1.7571    0.0000 C   0  0  0  0  0  0  0  0  0  0  0  0
   13.3070    4.7704    0.0000 C   0  0  0  0  0  0  0  0  0  0  0  0
    8.9904    1.2537    0.0000 C   0  0  0  0  0  0  0  0  0  0  0  0
    8.1301   -0.2496    0.0000 C   0  0  0  0  0  0  0  0  0  0  0  0
    8.1301   -1.2912    0.0000 C   0  0  0  0  0  0  0  0  0  0  0  0
    6.3301   -1.2704    0.0000 C   0  0  0  0  0  0  0  0  0  0  0  0
    7.2241    0.2643    0.0000 C   0  0  0  0  0  0  0  0  0  0  0  0
    6.3301   -0.2704    0.0000 C   0  0  0  0  0  0  0  0  0  0  0  0
    7.2241   -1.8051    0.0000 C   0  0  0  0  0  0  0  0  0  0  0  0
    5.4641   -1.7704    0.0000 C   0  0  0  0  0  0  0  0  0  0  0  0
    4.5981   -1.2704    0.0000 C   0  0  0  0  0  0  0  0  0  0  0  0
    4.5981   -0.2704    0.0000 C   0  0  0  0  0  0  0  0  0  0  0  0
    4.5981   -3.2704    0.0000 C   0  0  0  0  0  0  0  0  0  0  0  0
    3.7320   -2.7704    0.0000 C   0  0  0  0  0  0  0  0  0  0  0  0
    8.9904   -2.7946    0.0000 C   0  0  0  0  0  0  0  0  0  0  0  0
    4.5981   -4.2704    0.0000 C   0  0  0  0  0  0  0  0  0  0  0  0
    2.8660   -3.2704    0.0000 C   0  0  0  0  0  0  0  0  0  0  0  0
    3.7320   -1.7704    0.0000 C   0  0  0  0  0  0  0  0  0  0  0  0
    3.7320   -4.7704    0.0000 C   0  0  0  0  0  0  0  0  0  0  0  0
    2.8660   -4.2704    0.0000 C   0  0  0  0  0  0  0  0  0  0  0  0
    2.0000   -1.7704    0.0000 C   0  0  0  0  0  0  0  0  0  0  0  0
   11.1860    2.2873    0.0000 H   0  0  0  0  0  0  0  0  0  0  0  0
   11.9830    2.2903    0.0000 H   0  0  0  0  0  0  0  0  0  0  0  0
   10.4966    4.8422    0.0000 H   0  0  0  0  0  0  0  0  0  0  0  0
   10.1007    4.1504    0.0000 H   0  0  0  0  0  0  0  0  0  0  0  0
   12.6610    2.6853    0.0000 H   0  0  0  0  0  0  0  0  0  0  0  0
   13.0569    3.3771    0.0000 H   0  0  0  0  0  0  0  0  0  0  0  0
   11.9716    5.2402    0.0000 H   0  0  0  0  0  0  0  0  0  0  0  0
   11.1746    5.2371    0.0000 H   0  0  0  0  0  0  0  0  0  0  0  0
    9.6363    3.3388    0.0000 H   0  0  0  0  0  0  0  0  0  0  0  0
    9.2404    2.6470    0.0000 H   0  0  0  0  0  0  0  0  0  0  0  0
   10.0688    1.1753    0.0000 H   0  0  0  0  0  0  0  0  0  0  0  0
   10.4646    1.8671    0.0000 H   0  0  0  0  0  0  0  0  0  0  0  0
   13.6190    4.2347    0.0000 H   0  0  0  0  0  0  0  0  0  0  0  0
   13.8427    5.0825    0.0000 H   0  0  0  0  0  0  0  0  0  0  0  0
   12.9949    5.3061    0.0000 H   0  0  0  0  0  0  0  0  0  0  0  0
    8.7761    1.8355    0.0000 H   0  0  0  0  0  0  0  0  0  0  0  0
    8.3802    1.1437    0.0000 H   0  0  0  0  0  0  0  0  0  0  0  0
    7.2169    0.8842    0.0000 H   0  0  0  0  0  0  0  0  0  0  0  0
    7.2169   -2.4250    0.0000 H   0  0  0  0  0  0  0  0  0  0  0  0
    6.0010   -3.0804    0.0000 H   0  0  0  0  0  0  0  0  0  0  0  0
    4.0611    0.0396    0.0000 H   0  0  0  0  0  0  0  0  0  0  0  0
    3.7320   -2.1504    0.0000 H   0  0  0  0  0  0  0  0  0  0  0  0
    8.3704   -2.7922    0.0000 H   0  0  0  0  0  0  0  0  0  0  0  0
    8.9880   -3.4145    0.0000 H   0  0  0  0  0  0  0  0  0  0  0  0
    9.6104   -2.7969    0.0000 H   0  0  0  0  0  0  0  0  0  0  0  0
    3.7320   -5.3904    0.0000 H   0  0  0  0  0  0  0  0  0  0  0  0
    2.6200   -1.7704    0.0000 H   0  0  0  0  0  0  0  0  0  0  0  0
    2.0000   -1.1504    0.0000 H   0  0  0  0  0  0  0  0  0  0  0  0
    1.3800   -1.7704    0.0000 H   0  0  0  0  0  0  0  0  0  0  0  0
  1 31  1  0  0  0  0
  2 35  1  0  0  0  0
  3 18  1  0  0  0  0
  3 19  1  0  0  0  0
  4 20  1  0  0  0  0
  4 30  1  0  0  0  0
  5 32  1  0  0  0  0
  5 36  1  0  0  0  0
  6 11  1  0  0  0  0
  6 12  1  0  0  0  0
  6 15  1  0  0  0  0
  7 13  1  0  0  0  0
  7 14  1  0  0  0  0
  7 17  1  0  0  0  0
  8 25  1  0  0  0  0
  8 28  1  0  0  0  0
  8 56  1  0  0  0  0
  9 23  1  0  0  0  0
  9 27  2  0  0  0  0
 10 33  3  0  0  0  0
 11 13  1  0  0  0  0
 11 37  1  0  0  0  0
 11 38  1  0  0  0  0
 12 14  1  0  0  0  0
 12 39  1  0  0  0  0
 12 40  1  0  0  0  0
 13 41  1  0  0  0  0
 13 42  1  0  0  0  0
 14 43  1  0  0  0  0
 14 44  1  0  0  0  0
 15 16  1  0  0  0  0
 15 45  1  0  0  0  0
 15 46  1  0  0  0  0
 16 18  1  0  0  0  0
 16 47  1  0  0  0  0
 16 48  1  0  0  0  0
 17 49  1  0  0  0  0
 17 50  1  0  0  0  0
 17 51  1  0  0  0  0
 18 52  1  0  0  0  0
 18 53  1  0  0  0  0
 19 20  2  0  0  0  0
 19 22  1  0  0  0  0
 20 24  1  0  0  0  0
 21 23  1  0  0  0  0
 21 24  2  0  0  0  0
 21 25  1  0  0  0  0
 22 23  2  0  0  0  0
 22 54  1  0  0  0  0
 24 55  1  0  0  0  0
 25 26  2  0  0  0  0
 26 27  1  0  0  0  0
 26 33  1  0  0  0  0
 27 57  1  0  0  0  0
 28 29  2  0  0  0  0
 28 31  1  0  0  0  0
 29 32  1  0  0  0  0
 29 58  1  0  0  0  0
 30 59  1  0  0  0  0
 30 60  1  0  0  0  0
 30 61  1  0  0  0  0
 31 34  2  0  0  0  0
 32 35  2  0  0  0  0
 34 35  1  0  0  0  0
 34 62  1  0  0  0  0
 36 63  1  0  0  0  0
 36 64  1  0  0  0  0
 36 65  1  0  0  0  0
M  END
> <PUBCHEM_COMPOUND_CID>
5328940

> <PUBCHEM_COMPOUND_CANONICALIZED>
1

> <PUBCHEM_CACTVS_COMPLEXITY>
734

> <PUBCHEM_CACTVS_HBOND_ACCEPTOR>
8

> <PUBCHEM_CACTVS_HBOND_DONOR>
1

> <PUBCHEM_CACTVS_ROTATABLE_BOND>
9

> <PUBCHEM_CACTVS_SUBSKEYS>
AAADceB7sAAGAAAAAAAAAAAAAAAAAAAAAAA8eIEAAAAAAACx9AAAHgIQAAAADA7hniY+xvPIFACwBzRnRACiiCAxJ2AA2CA+75gN5uPF8tvWPCrm0BnK6A+w0PMOIGBBAgCCSBBAwIIEAQSQIAAAAAAAAA==

> <PUBCHEM_IUPAC_OPENEYE_NAME>
4-(2,4-dichloro-5-methoxy-anilino)-6-methoxy-7-[3-(4-methylpiperazin-1-yl)propoxy]quinoline-3-carbonitrile

> <PUBCHEM_IUPAC_CAS_NAME>
4-(2,4-dichloro-5-methoxyanilino)-6-methoxy-7-[3-(4-methyl-1-piperazinyl)propoxy]-3-quinolinecarbonitrile

> <PUBCHEM_IUPAC_NAME>
4-(2,4-dichloro-5-methoxyanilino)-6-methoxy-7-[3-(4-methylpiperazin-1-yl)propoxy]quinoline-3-carbonitrile

> <PUBCHEM_IUPAC_SYSTEMATIC_NAME>
4-[[2,4-bis(chloranyl)-5-methoxy-phenyl]amino]-6-methoxy-7-[3-(4-methylpiperazin-1-yl)propoxy]quinoline-3-carbonitrile

> <PUBCHEM_IUPAC_TRADITIONAL_NAME>
4-(2,4-dichloro-5-methoxy-anilino)-6-methoxy-7-[3-(4-methylpiperazino)propoxy]quinoline-3-carbonitrile

> <PUBCHEM_IUPAC_INCHI>
InChI=1S/C26H29Cl2N5O3/c1-32-6-8-33(9-7-32)5-4-10-36-25-13-21-18(11-24(25)35-3)26(17(15-29)16-30-21)31-22-14-23(34-2)20(28)12-19(22)27/h11-14,16H,4-10H2,1-3H3,(H,30,31)

> <PUBCHEM_IUPAC_INCHIKEY>
UBPYILGKFZZVDX-UHFFFAOYSA-N

> <PUBCHEM_XLOGP3_AA>
5.4

> <PUBCHEM_EXACT_MASS>
529.165

> <PUBCHEM_MOLECULAR_FORMULA>
C26H29Cl2N5O3

> <PUBCHEM_MOLECULAR_WEIGHT>
530.45

> <PUBCHEM_OPENEYE_CAN_SMILES>
CN1CCN(CC1)CCCOC2=C(C=C3C(=C2)N=CC(=C3NC4=CC(=C(C=C4Cl)Cl)OC)C#N)OC

> <PUBCHEM_OPENEYE_ISO_SMILES>
CN1CCN(CC1)CCCOC2=C(C=C3C(=C2)N=CC(=C3NC4=CC(=C(C=C4Cl)Cl)OC)C#N)OC

> <PUBCHEM_CACTVS_TPSA>
82.9

> <PUBCHEM_MONOISOTOPIC_WEIGHT>
529.165

> <PUBCHEM_TOTAL_CHARGE>
0

> <PUBCHEM_HEAVY_ATOM_COUNT>
36

> <PUBCHEM_ATOM_DEF_STEREO_COUNT>
0

> <PUBCHEM_ATOM_UDEF_STEREO_COUNT>
0

> <PUBCHEM_BOND_DEF_STEREO_COUNT>
0

> <PUBCHEM_BOND_UDEF_STEREO_COUNT>
0

> <PUBCHEM_ISOTOPIC_ATOM_COUNT>
0

> <PUBCHEM_COMPONENT_COUNT>
1

> <PUBCHEM_CACTVS_TAUTO_COUNT>
3

> <PUBCHEM_COORDINATE_TYPE>
1
5
255

> <PUBCHEM_BONDANNOTATIONS>
19  20  8
19  22  8
20  24  8
21  23  8
21  24  8
21  25  8
22  23  8
25  26  8
26  27  8
28  29  8
28  31  8
29  32  8
31  34  8
32  35  8
34  35  8
9  23  8
9  27  8

$$$$
10184653
  -OEChem-11021605012D

 59 62  0     1  0  0  0  0  0999 V2000
    9.7758   -4.0738    0.0000 Cl  0  0  0  0  0  0  0  0  0  0  0  0
   11.5193   -3.0939    0.0000 F   0  0  0  0  0  0  0  0  0  0  0  0
    4.0981    4.5194    0.0000 O   0  0  0  0  0  0  0  0  0  0  0  0
    4.5981    1.9806    0.0000 O   0  0  0  0  0  0  0  0  0  0  0  0
    5.4641   -1.5194    0.0000 O   0  0  0  0  0  0  0  0  0  0  0  0
    4.5981   -0.0194    0.0000 N   0  0  0  0  0  0  0  0  0  0  0  0
    8.0901    2.0152    0.0000 N   0  0  0  0  0  0  0  0  0  0  0  0
    8.0785   -1.0540    0.0000 N   0  0  0  0  0  0  0  0  0  0  0  0
    8.9962    0.4598    0.0000 N   0  0  0  0  0  0  0  0  0  0  0  0
    2.8660   -4.0194    0.0000 N   0  0  0  0  0  0  0  0  0  0  0  0
    4.5981    2.9806    0.0000 C   0  0  1  0  0  0  0  0  0  0  0  0
    5.4071    3.5684    0.0000 C   0  0  0  0  0  0  0  0  0  0  0  0
    3.7891    3.5684    0.0000 C   0  0  0  0  0  0  0  0  0  0  0  0
    5.0981    4.5194    0.0000 C   0  0  0  0  0  0  0  0  0  0  0  0
    5.4641    1.4806    0.0000 C   0  0  0  0  0  0  0  0  0  0  0  0
    5.4641    0.4806    0.0000 C   0  0  0  0  0  0  0  0  0  0  0  0
    6.3301    1.9806    0.0000 C   0  0  0  0  0  0  0  0  0  0  0  0
    7.1962    0.4806    0.0000 C   0  0  0  0  0  0  0  0  0  0  0  0
    7.1962    1.4806    0.0000 C   0  0  0  0  0  0  0  0  0  0  0  0
    6.3301   -0.0194    0.0000 C   0  0  0  0  0  0  0  0  0  0  0  0
    8.0901   -0.0541    0.0000 C   0  0  0  0  0  0  0  0  0  0  0  0
    4.5981   -1.0194    0.0000 C   0  0  0  0  0  0  0  0  0  0  0  0
    8.9962    1.5014    0.0000 C   0  0  0  0  0  0  0  0  0  0  0  0
    8.9387   -1.5640    0.0000 C   0  0  0  0  0  0  0  0  0  0  0  0
    3.7320   -1.5194    0.0000 C   0  0  0  0  0  0  0  0  0  0  0  0
    2.8660   -3.0194    0.0000 C   0  0  0  0  0  0  0  0  0  0  0  0
    3.7320   -2.5194    0.0000 C   0  0  0  0  0  0  0  0  0  0  0  0
    8.9271   -2.5639    0.0000 C   0  0  0  0  0  0  0  0  0  0  0  0
    9.8105   -1.0740    0.0000 C   0  0  0  0  0  0  0  0  0  0  0  0
    9.7873   -3.0739    0.0000 C   0  0  0  0  0  0  0  0  0  0  0  0
   10.6707   -1.5840    0.0000 C   0  0  0  0  0  0  0  0  0  0  0  0
    2.0000   -4.5194    0.0000 C   0  0  0  0  0  0  0  0  0  0  0  0
    3.7320   -4.5194    0.0000 C   0  0  0  0  0  0  0  0  0  0  0  0
   10.6591   -2.5840    0.0000 C   0  0  0  0  0  0  0  0  0  0  0  0
    5.1505    2.6991    0.0000 H   0  0  0  0  0  0  0  0  0  0  0  0
    5.7171    3.0314    0.0000 H   0  0  0  0  0  0  0  0  0  0  0  0
    5.9735    3.8205    0.0000 H   0  0  0  0  0  0  0  0  0  0  0  0
    3.2227    3.8205    0.0000 H   0  0  0  0  0  0  0  0  0  0  0  0
    3.4791    3.0314    0.0000 H   0  0  0  0  0  0  0  0  0  0  0  0
    5.7045    4.6483    0.0000 H   0  0  0  0  0  0  0  0  0  0  0  0
    5.0333    5.1360    0.0000 H   0  0  0  0  0  0  0  0  0  0  0  0
    6.3301    2.6006    0.0000 H   0  0  0  0  0  0  0  0  0  0  0  0
    6.3301   -0.6394    0.0000 H   0  0  0  0  0  0  0  0  0  0  0  0
    4.0611    0.2906    0.0000 H   0  0  0  0  0  0  0  0  0  0  0  0
    7.5380   -1.3578    0.0000 H   0  0  0  0  0  0  0  0  0  0  0  0
    9.5319    1.8135    0.0000 H   0  0  0  0  0  0  0  0  0  0  0  0
    3.1951   -1.2094    0.0000 H   0  0  0  0  0  0  0  0  0  0  0  0
    2.6540   -2.4368    0.0000 H   0  0  0  0  0  0  0  0  0  0  0  0
    2.2554   -3.1271    0.0000 H   0  0  0  0  0  0  0  0  0  0  0  0
    4.2690   -2.8294    0.0000 H   0  0  0  0  0  0  0  0  0  0  0  0
    8.3867   -2.8677    0.0000 H   0  0  0  0  0  0  0  0  0  0  0  0
    9.8176   -0.4541    0.0000 H   0  0  0  0  0  0  0  0  0  0  0  0
   11.2111   -1.2803    0.0000 H   0  0  0  0  0  0  0  0  0  0  0  0
    1.6900   -3.9825    0.0000 H   0  0  0  0  0  0  0  0  0  0  0  0
    1.4631   -4.8294    0.0000 H   0  0  0  0  0  0  0  0  0  0  0  0
    2.3100   -5.0564    0.0000 H   0  0  0  0  0  0  0  0  0  0  0  0
    3.4220   -5.0564    0.0000 H   0  0  0  0  0  0  0  0  0  0  0  0
    4.2690   -4.8294    0.0000 H   0  0  0  0  0  0  0  0  0  0  0  0
    4.0420   -3.9825    0.0000 H   0  0  0  0  0  0  0  0  0  0  0  0
  1 30  1  0  0  0  0
  2 34  1  0  0  0  0
  3 13  1  0  0  0  0
  3 14  1  0  0  0  0
 11  4  1  6  0  0  0
  4 15  1  0  0  0  0
  5 22  2  0  0  0  0
  6 16  1  0  0  0  0
  6 22  1  0  0  0  0
  6 44  1  0  0  0  0
  7 19  1  0  0  0  0
  7 23  2  0  0  0  0
  8 21  1  0  0  0  0
  8 24  1  0  0  0  0
  8 45  1  0  0  0  0
  9 21  2  0  0  0  0
  9 23  1  0  0  0  0
 10 26  1  0  0  0  0
 10 32  1  0  0  0  0
 10 33  1  0  0  0  0
 11 12  1  0  0  0  0
 11 13  1  0  0  0  0
 11 35  1  0  0  0  0
 12 14  1  0  0  0  0
 12 36  1  0  0  0  0
 12 37  1  0  0  0  0
 13 38  1  0  0  0  0
 13 39  1  0  0  0  0
 14 40  1  0  0  0  0
 14 41  1  0  0  0  0
 15 16  2  0  0  0  0
 15 17  1  0  0  0  0
 16 20  1  0  0  0  0
 17 19  2  0  0  0  0
 17 42  1  0  0  0  0
 18 19  1  0  0  0  0
 18 20  2  0  0  0  0
 18 21  1  0  0  0  0
 20 43  1  0  0  0  0
 22 25  1  0  0  0  0
 23 46  1  0  0  0  0
 24 28  2  0  0  0  0
 24 29  1  0  0  0  0
 25 27  2  0  0  0  0
 25 47  1  0  0  0  0
 26 27  1  0  0  0  0
 26 48  1  0  0  0  0
 26 49  1  0  0  0  0
 27 50  1  0  0  0  0
 28 30  1  0  0  0  0
 28 51  1  0  0  0  0
 29 31  2  0  0  0  0
 29 52  1  0  0  0  0
 30 34  2  0  0  0  0
 31 34  1  0  0  0  0
 31 53  1  0  0  0  0
 32 54  1  0  0  0  0
 32 55  1  0  0  0  0
 32 56  1  0  0  0  0
 33 57  1  0  0  0  0
 33 58  1  0  0  0  0
 33 59  1  0  0  0  0
M  END
> <PUBCHEM_COMPOUND_CID>
10184653

> <PUBCHEM_COMPOUND_CANONICALIZED>
1

> <PUBCHEM_CACTVS_COMPLEXITY>
702

> <PUBCHEM_CACTVS_HBOND_ACCEPTOR>
8

> <PUBCHEM_CACTVS_HBOND_DONOR>
2

> <PUBCHEM_CACTVS_ROTATABLE_BOND>
8

> <PUBCHEM_CACTVS_SUBSKEYS>
AAADceB7sQAEAAAAAAAAAAAAAAAAASAAAAA8YIAAAAAAAACx9AAAHwIQAAAADB7hni439vfIFACoAydzdACCiCkxJ6AJ2CA/btiPLuLF+9uHPCjv1Bva6aeQ0AMOIACAQgICEABAAQCEBAQgAAAAAAAAAA==

> <PUBCHEM_IUPAC_OPENEYE_NAME>
(E)-N-[4-(3-chloro-4-fluoro-anilino)-7-[(3S)-tetrahydrofuran-3-yl]oxy-quinazolin-6-yl]-4-(dimethylamino)but-2-enamide

> <PUBCHEM_IUPAC_CAS_NAME>
(E)-N-[4-(3-chloro-4-fluoroanilino)-7-[[(3S)-3-oxolanyl]oxy]-6-quinazolinyl]-4-(dimethylamino)-2-butenamide

> <PUBCHEM_IUPAC_NAME>
(E)-N-[4-(3-chloro-4-fluoroanilino)-7-[(3S)-oxolan-3-yl]oxyquinazolin-6-yl]-4-(dimethylamino)but-2-enamide

> <PUBCHEM_IUPAC_SYSTEMATIC_NAME>
(E)-N-[4-[(3-chloranyl-4-fluoranyl-phenyl)amino]-7-[(3S)-oxolan-3-yl]oxy-quinazolin-6-yl]-4-(dimethylamino)but-2-enamide

> <PUBCHEM_IUPAC_TRADITIONAL_NAME>
(E)-N-[4-(3-chloro-4-fluoro-anilino)-7-[(3S)-tetrahydrofuran-3-yl]oxy-quinazolin-6-yl]-4-(dimethylamino)but-2-enamide

> <PUBCHEM_IUPAC_INCHI>
InChI=1S/C24H25ClFN5O3/c1-31(2)8-3-4-23(32)30-21-11-17-20(12-22(21)34-16-7-9-33-13-16)27-14-28-24(17)29-15-5-6-19(26)18(25)10-15/h3-6,10-12,14,16H,7-9,13H2,1-2H3,(H,30,32)(H,27,28,29)/b4-3+/t16-/m0/s1

> <PUBCHEM_IUPAC_INCHIKEY>
ULXXDDBFHOBEHA-CWDCEQMOSA-N

> <PUBCHEM_XLOGP3_AA>
3.6

> <PUBCHEM_EXACT_MASS>
485.163

> <PUBCHEM_MOLECULAR_FORMULA>
C24H25ClFN5O3

> <PUBCHEM_MOLECULAR_WEIGHT>
485.944

> <PUBCHEM_OPENEYE_CAN_SMILES>
CN(C)CC=CC(=O)NC1=C(C=C2C(=C1)C(=NC=N2)NC3=CC(=C(C=C3)F)Cl)OC4CCOC4

> <PUBCHEM_OPENEYE_ISO_SMILES>
CN(C)C/C=C/C(=O)NC1=C(C=C2C(=C1)C(=NC=N2)NC3=CC(=C(C=C3)F)Cl)O[C@H]4CCOC4

> <PUBCHEM_CACTVS_TPSA>
88.6

> <PUBCHEM_MONOISOTOPIC_WEIGHT>
485.163

> <PUBCHEM_TOTAL_CHARGE>
0

> <PUBCHEM_HEAVY_ATOM_COUNT>
34

> <PUBCHEM_ATOM_DEF_STEREO_COUNT>
1

> <PUBCHEM_ATOM_UDEF_STEREO_COUNT>
0

> <PUBCHEM_BOND_DEF_STEREO_COUNT>
1

> <PUBCHEM_BOND_UDEF_STEREO_COUNT>
0

> <PUBCHEM_ISOTOPIC_ATOM_COUNT>
0

> <PUBCHEM_COMPONENT_COUNT>
1

> <PUBCHEM_CACTVS_TAUTO_COUNT>
6

> <PUBCHEM_COORDINATE_TYPE>
1
5
255

> <PUBCHEM_BONDANNOTATIONS>
15  16  8
15  17  8
16  20  8
17  19  8
18  19  8
18  20  8
18  21  8
24  28  8
24  29  8
28  30  8
29  31  8
30  34  8
31  34  8
11  4  6
7  19  8
7  23  8
9  21  8
9  23  8

$$$$
11213558
  -OEChem-11021605012D

 57 60  0     0  0  0  0  0  0999 V2000
    9.1243   -3.7483    0.0000 F   0  0  0  0  0  0  0  0  0  0  0  0
    3.8660   -0.7175    0.0000 O   0  0  0  0  0  0  0  0  0  0  0  0
    2.1340   -2.7175    0.0000 O   0  0  0  0  0  0  0  0  0  0  0  0
   12.6038    0.2383    0.0000 O   0  0  0  0  0  0  0  0  0  0  0  0
   10.8834    3.2450    0.0000 O   0  0  0  0  0  0  0  0  0  0  0  0
   12.6115    2.2383    0.0000 O   0  0  0  0  0  0  0  0  0  0  0  0
    3.8660   -2.7175    0.0000 N   0  0  0  0  0  0  0  0  0  0  0  0
    5.6260   -2.7522    0.0000 N   0  0  0  0  0  0  0  0  0  0  0  0
    7.3962   -2.7416    0.0000 N   0  0  0  0  0  0  0  0  0  0  0  0
    9.1398    0.2517    0.0000 N   0  0  0  0  0  0  0  0  0  0  0  0
    8.2680   -1.2450    0.0000 N   0  0  0  0  0  0  0  0  0  0  0  0
   10.0000   -1.2517    0.0000 N   0  0  0  0  0  0  0  0  0  0  0  0
    3.0000   -1.2175    0.0000 C   0  0  0  0  0  0  0  0  0  0  0  0
    3.0000   -2.2175    0.0000 C   0  0  0  0  0  0  0  0  0  0  0  0
    2.0000   -1.2175    0.0000 C   0  0  0  0  0  0  0  0  0  0  0  0
    2.5000   -0.3515    0.0000 C   0  0  0  0  0  0  0  0  0  0  0  0
    4.7320   -1.2175    0.0000 C   0  0  0  0  0  0  0  0  0  0  0  0
    4.7320   -2.2175    0.0000 C   0  0  0  0  0  0  0  0  0  0  0  0
    5.6260   -0.6828    0.0000 C   0  0  0  0  0  0  0  0  0  0  0  0
    6.5321   -2.2383    0.0000 C   0  0  0  0  0  0  0  0  0  0  0  0
    6.5321   -1.1967    0.0000 C   0  0  0  0  0  0  0  0  0  0  0  0
    8.2641   -2.2450    0.0000 C   0  0  0  0  0  0  0  0  0  0  0  0
   10.0077    0.7483    0.0000 C   0  0  0  0  0  0  0  0  0  0  0  0
   10.0116    1.7483    0.0000 C   0  0  0  0  0  0  0  0  0  0  0  0
   10.8718    0.2450    0.0000 C   0  0  0  0  0  0  0  0  0  0  0  0
   11.7397    0.7416    0.0000 C   0  0  0  0  0  0  0  0  0  0  0  0
   10.8795    2.2450    0.0000 C   0  0  0  0  0  0  0  0  0  0  0  0
   11.7436    1.7416    0.0000 C   0  0  0  0  0  0  0  0  0  0  0  0
    9.1359   -0.7483    0.0000 C   0  0  0  0  0  0  0  0  0  0  0  0
    9.1282   -2.7483    0.0000 C   0  0  0  0  0  0  0  0  0  0  0  0
    9.9961   -2.2516    0.0000 C   0  0  0  0  0  0  0  0  0  0  0  0
   12.6154    3.2383    0.0000 C   0  0  0  0  0  0  0  0  0  0  0  0
   13.4718    0.7350    0.0000 C   0  0  0  0  0  0  0  0  0  0  0  0
   10.0193    3.7483    0.0000 C   0  0  0  0  0  0  0  0  0  0  0  0
    2.0000   -0.5975    0.0000 H   0  0  0  0  0  0  0  0  0  0  0  0
    1.3800   -1.2175    0.0000 H   0  0  0  0  0  0  0  0  0  0  0  0
    3.0369   -0.0415    0.0000 H   0  0  0  0  0  0  0  0  0  0  0  0
    2.1900    0.1855    0.0000 H   0  0  0  0  0  0  0  0  0  0  0  0
    1.9631   -0.6615    0.0000 H   0  0  0  0  0  0  0  0  0  0  0  0
    2.0000   -1.8375    0.0000 H   0  0  0  0  0  0  0  0  0  0  0  0
    3.8660   -3.3375    0.0000 H   0  0  0  0  0  0  0  0  0  0  0  0
    5.6188   -0.0629    0.0000 H   0  0  0  0  0  0  0  0  0  0  0  0
    7.0678   -0.8846    0.0000 H   0  0  0  0  0  0  0  0  0  0  0  0
    7.3938   -3.3616    0.0000 H   0  0  0  0  0  0  0  0  0  0  0  0
    9.4758    2.0604    0.0000 H   0  0  0  0  0  0  0  0  0  0  0  0
   10.8694   -0.3750    0.0000 H   0  0  0  0  0  0  0  0  0  0  0  0
    8.6040    0.5637    0.0000 H   0  0  0  0  0  0  0  0  0  0  0  0
   10.5319   -2.5637    0.0000 H   0  0  0  0  0  0  0  0  0  0  0  0
   13.2354    3.2359    0.0000 H   0  0  0  0  0  0  0  0  0  0  0  0
   12.6178    3.8583    0.0000 H   0  0  0  0  0  0  0  0  0  0  0  0
   11.9954    3.2407    0.0000 H   0  0  0  0  0  0  0  0  0  0  0  0
   13.7797    0.1968    0.0000 H   0  0  0  0  0  0  0  0  0  0  0  0
   14.0099    1.0429    0.0000 H   0  0  0  0  0  0  0  0  0  0  0  0
   13.1638    1.2731    0.0000 H   0  0  0  0  0  0  0  0  0  0  0  0
   10.3313    4.2840    0.0000 H   0  0  0  0  0  0  0  0  0  0  0  0
    9.4835    4.0604    0.0000 H   0  0  0  0  0  0  0  0  0  0  0  0
    9.7072    3.2126    0.0000 H   0  0  0  0  0  0  0  0  0  0  0  0
  1 30  1  0  0  0  0
  2 13  1  0  0  0  0
  2 17  1  0  0  0  0
  3 14  2  0  0  0  0
  4 26  1  0  0  0  0
  4 33  1  0  0  0  0
  5 27  1  0  0  0  0
  5 34  1  0  0  0  0
  6 28  1  0  0  0  0
  6 32  1  0  0  0  0
  7 14  1  0  0  0  0
  7 18  1  0  0  0  0
  7 41  1  0  0  0  0
  8 18  1  0  0  0  0
  8 20  2  0  0  0  0
  9 20  1  0  0  0  0
  9 22  1  0  0  0  0
  9 44  1  0  0  0  0
 10 23  1  0  0  0  0
 10 29  1  0  0  0  0
 10 47  1  0  0  0  0
 11 22  2  0  0  0  0
 11 29  1  0  0  0  0
 12 29  2  0  0  0  0
 12 31  1  0  0  0  0
 13 14  1  0  0  0  0
 13 15  1  0  0  0  0
 13 16  1  0  0  0  0
 15 35  1  0  0  0  0
 15 36  1  0  0  0  0
 15 40  1  0  0  0  0
 16 37  1  0  0  0  0
 16 38  1  0  0  0  0
 16 39  1  0  0  0  0
 17 18  2  0  0  0  0
 17 19  1  0  0  0  0
 19 21  2  0  0  0  0
 19 42  1  0  0  0  0
 20 21  1  0  0  0  0
 21 43  1  0  0  0  0
 22 30  1  0  0  0  0
 23 24  2  0  0  0  0
 23 25  1  0  0  0  0
 24 27  1  0  0  0  0
 24 45  1  0  0  0  0
 25 26  2  0  0  0  0
 25 46  1  0  0  0  0
 26 28  1  0  0  0  0
 27 28  2  0  0  0  0
 30 31  2  0  0  0  0
 31 48  1  0  0  0  0
 32 49  1  0  0  0  0
 32 50  1  0  0  0  0
 32 51  1  0  0  0  0
 33 52  1  0  0  0  0
 33 53  1  0  0  0  0
 33 54  1  0  0  0  0
 34 55  1  0  0  0  0
 34 56  1  0  0  0  0
 34 57  1  0  0  0  0
M  END
> <PUBCHEM_COMPOUND_CID>
11213558

> <PUBCHEM_COMPOUND_CANONICALIZED>
1

> <PUBCHEM_CACTVS_COMPLEXITY>
691

> <PUBCHEM_CACTVS_HBOND_ACCEPTOR>
11

> <PUBCHEM_CACTVS_HBOND_DONOR>
3

> <PUBCHEM_CACTVS_ROTATABLE_BOND>
7

> <PUBCHEM_CACTVS_SUBSKEYS>
AAADceB7uQAAAAAAAAAAAAAAAAAAAAAAAAA8WLEAAAAAAACx8AAAHwAQAAAADEzBkg4/9pbIFACoADd3dAaCiCkxYqAJ2CF/7JiPL+LE+d+HPCrv1R/a6CewcA8AAEAACgAAQAAAgAAUAACAAAAAAAAAAA==

> <PUBCHEM_IUPAC_OPENEYE_NAME>
6-[[5-fluoro-2-(3,4,5-trimethoxyanilino)pyrimidin-4-yl]amino]-2,2-dimethyl-4H-pyrido[3,2-b][1,4]oxazin-3-one

> <PUBCHEM_IUPAC_CAS_NAME>
6-[[5-fluoro-2-(3,4,5-trimethoxyanilino)-4-pyrimidinyl]amino]-2,2-dimethyl-4H-pyrido[3,2-b][1,4]oxazin-3-one

> <PUBCHEM_IUPAC_NAME>
6-[[5-fluoro-2-(3,4,5-trimethoxyanilino)pyrimidin-4-yl]amino]-2,2-dimethyl-4H-pyrido[3,2-b][1,4]oxazin-3-one

> <PUBCHEM_IUPAC_SYSTEMATIC_NAME>
6-[[5-fluoranyl-2-[(3,4,5-trimethoxyphenyl)amino]pyrimidin-4-yl]amino]-2,2-dimethyl-4H-pyrido[3,2-b][1,4]oxazin-3-one

> <PUBCHEM_IUPAC_TRADITIONAL_NAME>
6-[[5-fluoro-2-(3,4,5-trimethoxyanilino)pyrimidin-4-yl]amino]-2,2-dimethyl-4H-pyrido[3,2-b][1,4]oxazin-3-one

> <PUBCHEM_IUPAC_INCHI>
InChI=1S/C22H23FN6O5/c1-22(2)20(30)28-19-13(34-22)6-7-16(27-19)26-18-12(23)10-24-21(29-18)25-11-8-14(31-3)17(33-5)15(9-11)32-4/h6-10H,1-5H3,(H3,24,25,26,27,28,29,30)

> <PUBCHEM_IUPAC_INCHIKEY>
NHHQJBCNYHBUSI-UHFFFAOYSA-N

> <PUBCHEM_XLOGP3_AA>
3.1

> <PUBCHEM_EXACT_MASS>
470.171

> <PUBCHEM_MOLECULAR_FORMULA>
C22H23FN6O5

> <PUBCHEM_MOLECULAR_WEIGHT>
470.461

> <PUBCHEM_OPENEYE_CAN_SMILES>
CC1(C(=O)NC2=C(O1)C=CC(=N2)NC3=NC(=NC=C3F)NC4=CC(=C(C(=C4)OC)OC)OC)C

> <PUBCHEM_OPENEYE_ISO_SMILES>
CC1(C(=O)NC2=C(O1)C=CC(=N2)NC3=NC(=NC=C3F)NC4=CC(=C(C(=C4)OC)OC)OC)C

> <PUBCHEM_CACTVS_TPSA>
129

> <PUBCHEM_MONOISOTOPIC_WEIGHT>
470.171

> <PUBCHEM_TOTAL_CHARGE>
0

> <PUBCHEM_HEAVY_ATOM_COUNT>
34

> <PUBCHEM_ATOM_DEF_STEREO_COUNT>
0

> <PUBCHEM_ATOM_UDEF_STEREO_COUNT>
0

> <PUBCHEM_BOND_DEF_STEREO_COUNT>
0

> <PUBCHEM_BOND_UDEF_STEREO_COUNT>
0

> <PUBCHEM_ISOTOPIC_ATOM_COUNT>
0

> <PUBCHEM_COMPONENT_COUNT>
1

> <PUBCHEM_CACTVS_TAUTO_COUNT>
56

> <PUBCHEM_COORDINATE_TYPE>
1
3

> <PUBCHEM_BONDANNOTATIONS>
11  22  8
11  29  8
12  29  8
12  31  8
17  18  8
17  19  8
19  21  8
20  21  8
22  30  8
23  24  8
23  25  8
24  27  8
25  26  8
26  28  8
27  28  8
30  31  8
8  18  8
8  20  8

$$$$
6918454
  -OEChem-11021605012D

 39 41  0     0  0  0  0  0  0999 V2000
    9.4282    3.4330    0.0000 I   0  0  0  0  0  0  0  0  0  0  0  0
    5.9641    3.4330    0.0000 Cl  0  0  0  0  0  0  0  0  0  0  0  0
    7.6962    0.4330    0.0000 F   0  0  0  0  0  0  0  0  0  0  0  0
    7.6962   -1.5670    0.0000 F   0  0  0  0  0  0  0  0  0  0  0  0
    3.3660   -1.0670    0.0000 O   0  0  0  0  0  0  0  0  0  0  0  0
    4.2320    1.4330    0.0000 O   0  0  0  0  0  0  0  0  0  0  0  0
    3.3660   -0.0670    0.0000 N   0  0  0  0  0  0  0  0  0  0  0  0
    5.9641    1.4330    0.0000 N   0  0  0  0  0  0  0  0  0  0  0  0
    2.5000   -2.5670    0.0000 C   0  0  0  0  0  0  0  0  0  0  0  0
    2.0000   -3.4330    0.0000 C   0  0  0  0  0  0  0  0  0  0  0  0
    3.0000   -3.4330    0.0000 C   0  0  0  0  0  0  0  0  0  0  0  0
    2.5000   -1.5670    0.0000 C   0  0  0  0  0  0  0  0  0  0  0  0
    4.2320    0.4330    0.0000 C   0  0  0  0  0  0  0  0  0  0  0  0
    5.0981   -0.0670    0.0000 C   0  0  0  0  0  0  0  0  0  0  0  0
    5.9641    0.4330    0.0000 C   0  0  0  0  0  0  0  0  0  0  0  0
    5.0981   -1.0670    0.0000 C   0  0  0  0  0  0  0  0  0  0  0  0
    6.8301   -0.0670    0.0000 C   0  0  0  0  0  0  0  0  0  0  0  0
    6.8301    1.9330    0.0000 C   0  0  0  0  0  0  0  0  0  0  0  0
    5.9641   -1.5670    0.0000 C   0  0  0  0  0  0  0  0  0  0  0  0
    6.8301   -1.0670    0.0000 C   0  0  0  0  0  0  0  0  0  0  0  0
    6.8301    2.9330    0.0000 C   0  0  0  0  0  0  0  0  0  0  0  0
    7.6962    1.4330    0.0000 C   0  0  0  0  0  0  0  0  0  0  0  0
    7.6962    3.4330    0.0000 C   0  0  0  0  0  0  0  0  0  0  0  0
    8.5622    1.9330    0.0000 C   0  0  0  0  0  0  0  0  0  0  0  0
    8.5622    2.9330    0.0000 C   0  0  0  0  0  0  0  0  0  0  0  0
    3.0989   -2.4065    0.0000 H   0  0  0  0  0  0  0  0  0  0  0  0
    1.4174   -3.2210    0.0000 H   0  0  0  0  0  0  0  0  0  0  0  0
    1.8923   -4.0436    0.0000 H   0  0  0  0  0  0  0  0  0  0  0  0
    3.1077   -4.0436    0.0000 H   0  0  0  0  0  0  0  0  0  0  0  0
    3.5826   -3.2210    0.0000 H   0  0  0  0  0  0  0  0  0  0  0  0
    2.2880   -0.9844    0.0000 H   0  0  0  0  0  0  0  0  0  0  0  0
    1.8894   -1.6746    0.0000 H   0  0  0  0  0  0  0  0  0  0  0  0
    2.8291    0.2430    0.0000 H   0  0  0  0  0  0  0  0  0  0  0  0
    4.5611   -1.3770    0.0000 H   0  0  0  0  0  0  0  0  0  0  0  0
    5.4272    1.7430    0.0000 H   0  0  0  0  0  0  0  0  0  0  0  0
    5.9641   -2.1870    0.0000 H   0  0  0  0  0  0  0  0  0  0  0  0
    7.6962    0.8130    0.0000 H   0  0  0  0  0  0  0  0  0  0  0  0
    7.6962    4.0530    0.0000 H   0  0  0  0  0  0  0  0  0  0  0  0
    9.0991    1.6230    0.0000 H   0  0  0  0  0  0  0  0  0  0  0  0
  1 25  1  0  0  0  0
  2 21  1  0  0  0  0
  3 17  1  0  0  0  0
  4 20  1  0  0  0  0
  5  7  1  0  0  0  0
  5 12  1  0  0  0  0
  6 13  2  0  0  0  0
  7 13  1  0  0  0  0
  7 33  1  0  0  0  0
  8 15  1  0  0  0  0
  8 18  1  0  0  0  0
  8 35  1  0  0  0  0
  9 10  1  0  0  0  0
  9 11  1  0  0  0  0
  9 12  1  0  0  0  0
  9 26  1  0  0  0  0
 10 11  1  0  0  0  0
 10 27  1  0  0  0  0
 10 28  1  0  0  0  0
 11 29  1  0  0  0  0
 11 30  1  0  0  0  0
 12 31  1  0  0  0  0
 12 32  1  0  0  0  0
 13 14  1  0  0  0  0
 14 15  2  0  0  0  0
 14 16  1  0  0  0  0
 15 17  1  0  0  0  0
 16 19  2  0  0  0  0
 16 34  1  0  0  0  0
 17 20  2  0  0  0  0
 18 21  2  0  0  0  0
 18 22  1  0  0  0  0
 19 20  1  0  0  0  0
 19 36  1  0  0  0  0
 21 23  1  0  0  0  0
 22 24  2  0  0  0  0
 22 37  1  0  0  0  0
 23 25  2  0  0  0  0
 23 38  1  0  0  0  0
 24 25  1  0  0  0  0
 24 39  1  0  0  0  0
M  END
> <PUBCHEM_COMPOUND_CID>
6918454

> <PUBCHEM_COMPOUND_CANONICALIZED>
1

> <PUBCHEM_CACTVS_COMPLEXITY>
472

> <PUBCHEM_CACTVS_HBOND_ACCEPTOR>
5

> <PUBCHEM_CACTVS_HBOND_DONOR>
2

> <PUBCHEM_CACTVS_ROTATABLE_BOND>
6

> <PUBCHEM_CACTVS_SUBSKEYS>
AAADccB7MYAEAgAAAAAAAAAAGAAAAAAAAAAwYAAAAAAAAAABQAAAHwI0AAAADQqjmCowwILQAACIAiVSUACCAAAlBwAoiAEAZsgIIHrB15HEIYhkkADIyccYiACOAAAAAAACABAAAAAAAAQAIAAAAAAAAA==

> <PUBCHEM_IUPAC_OPENEYE_NAME>
2-(2-chloro-4-iodo-anilino)-N-(cyclopropylmethoxy)-3,4-difluoro-benzamide

> <PUBCHEM_IUPAC_CAS_NAME>
2-(2-chloro-4-iodoanilino)-N-(cyclopropylmethoxy)-3,4-difluorobenzamide

> <PUBCHEM_IUPAC_NAME>
2-(2-chloro-4-iodoanilino)-N-(cyclopropylmethoxy)-3,4-difluorobenzamide

> <PUBCHEM_IUPAC_SYSTEMATIC_NAME>
2-[(2-chloranyl-4-iodanyl-phenyl)amino]-N-(cyclopropylmethoxy)-3,4-bis(fluoranyl)benzamide

> <PUBCHEM_IUPAC_TRADITIONAL_NAME>
2-(2-chloro-4-iodo-anilino)-N-(cyclopropylmethoxy)-3,4-difluoro-benzamide

> <PUBCHEM_IUPAC_INCHI>
InChI=1S/C17H14ClF2IN2O2/c18-12-7-10(21)3-6-14(12)22-16-11(4-5-13(19)15(16)20)17(24)23-25-8-9-1-2-9/h3-7,9,22H,1-2,8H2,(H,23,24)

> <PUBCHEM_IUPAC_INCHIKEY>
GFMMXOIFOQCCGU-UHFFFAOYSA-N

> <PUBCHEM_XLOGP3_AA>
5.6

> <PUBCHEM_EXACT_MASS>
477.976

> <PUBCHEM_MOLECULAR_FORMULA>
C17H14ClF2IN2O2

> <PUBCHEM_MOLECULAR_WEIGHT>
478.662

> <PUBCHEM_OPENEYE_CAN_SMILES>
C1CC1CONC(=O)C2=C(C(=C(C=C2)F)F)NC3=C(C=C(C=C3)I)Cl

> <PUBCHEM_OPENEYE_ISO_SMILES>
C1CC1CONC(=O)C2=C(C(=C(C=C2)F)F)NC3=C(C=C(C=C3)I)Cl

> <PUBCHEM_CACTVS_TPSA>
50.4

> <PUBCHEM_MONOISOTOPIC_WEIGHT>
477.976

> <PUBCHEM_TOTAL_CHARGE>
0

> <PUBCHEM_HEAVY_ATOM_COUNT>
25

> <PUBCHEM_ATOM_DEF_STEREO_COUNT>
0

> <PUBCHEM_ATOM_UDEF_STEREO_COUNT>
0

> <PUBCHEM_BOND_DEF_STEREO_COUNT>
0

> <PUBCHEM_BOND_UDEF_STEREO_COUNT>
0

> <PUBCHEM_ISOTOPIC_ATOM_COUNT>
0

> <PUBCHEM_COMPONENT_COUNT>
1

> <PUBCHEM_CACTVS_TAUTO_COUNT>
5

> <PUBCHEM_COORDINATE_TYPE>
1
5
255

> <PUBCHEM_BONDANNOTATIONS>
14  15  8
14  16  8
15  17  8
16  19  8
17  20  8
18  21  8
18  22  8
19  20  8
21  23  8
22  24  8
23  25  8
24  25  8

$$$$
10074640
  -OEChem-11021605012D

 66 70  0     0  0  0  0  0  0999 V2000
    7.0916    5.6433    0.0000 S   0  0  0  0  0  0  0  0  0  0  0  0
    7.1962   -0.3512    0.0000 O   0  0  0  0  0  0  0  0  0  0  0  0
    2.8660   -2.8512    0.0000 N   0  0  0  0  0  0  0  0  0  0  0  0
    2.8660   -4.8512    0.0000 N   0  0  0  0  0  0  0  0  0  0  0  0
    6.3301    1.1488    0.0000 N   0  0  0  0  0  0  0  0  0  0  0  0
    8.0622    4.1488    0.0000 N   0  0  0  0  0  0  0  0  0  0  0  0
    6.2826    4.2420    0.0000 N   0  0  0  0  0  0  0  0  0  0  0  0
    3.0366    5.5851    0.0000 N   0  0  0  0  0  0  0  0  0  0  0  0
    2.0000   -3.3512    0.0000 C   0  0  0  0  0  0  0  0  0  0  0  0
    3.7320   -3.3512    0.0000 C   0  0  0  0  0  0  0  0  0  0  0  0
    2.0000   -4.3512    0.0000 C   0  0  0  0  0  0  0  0  0  0  0  0
    3.7320   -4.3512    0.0000 C   0  0  0  0  0  0  0  0  0  0  0  0
    2.8660   -1.8512    0.0000 C   0  0  0  0  0  0  0  0  0  0  0  0
    2.8660   -5.8512    0.0000 C   0  0  0  0  0  0  0  0  0  0  0  0
    3.7320   -1.3512    0.0000 C   0  0  0  0  0  0  0  0  0  0  0  0
    4.5981   -1.8512    0.0000 C   0  0  0  0  0  0  0  0  0  0  0  0
    3.7320   -0.3512    0.0000 C   0  0  0  0  0  0  0  0  0  0  0  0
    5.4641   -1.3512    0.0000 C   0  0  0  0  0  0  0  0  0  0  0  0
    4.5981    0.1488    0.0000 C   0  0  0  0  0  0  0  0  0  0  0  0
    5.4641   -0.3512    0.0000 C   0  0  0  0  0  0  0  0  0  0  0  0
    6.3301    0.1488    0.0000 C   0  0  0  0  0  0  0  0  0  0  0  0
    7.1962    1.6488    0.0000 C   0  0  0  0  0  0  0  0  0  0  0  0
    8.0622    3.1488    0.0000 C   0  0  0  0  0  0  0  0  0  0  0  0
    7.1962    2.6488    0.0000 C   0  0  0  0  0  0  0  0  0  0  0  0
    8.9282    2.6488    0.0000 C   0  0  0  0  0  0  0  0  0  0  0  0
    8.0622    1.1488    0.0000 C   0  0  0  0  0  0  0  0  0  0  0  0
    8.9282    1.6488    0.0000 C   0  0  0  0  0  0  0  0  0  0  0  0
    9.7942    3.1488    0.0000 C   0  0  0  0  0  0  0  0  0  0  0  0
    7.1962    4.6488    0.0000 C   0  0  0  0  0  0  0  0  0  0  0  0
    5.6135    4.9852    0.0000 C   0  0  0  0  0  0  0  0  0  0  0  0
    6.1135    5.8512    0.0000 C   0  0  0  0  0  0  0  0  0  0  0  0
    4.6190    4.8807    0.0000 C   0  0  0  0  0  0  0  0  0  0  0  0
    4.2122    3.9671    0.0000 C   0  0  0  0  0  0  0  0  0  0  0  0
    4.0312    5.6897    0.0000 C   0  0  0  0  0  0  0  0  0  0  0  0
    3.2177    3.8626    0.0000 C   0  0  0  0  0  0  0  0  0  0  0  0
    2.6299    4.6716    0.0000 C   0  0  0  0  0  0  0  0  0  0  0  0
    1.7880   -2.7686    0.0000 H   0  0  0  0  0  0  0  0  0  0  0  0
    1.3894   -3.4589    0.0000 H   0  0  0  0  0  0  0  0  0  0  0  0
    4.3426   -3.4589    0.0000 H   0  0  0  0  0  0  0  0  0  0  0  0
    3.9441   -2.7686    0.0000 H   0  0  0  0  0  0  0  0  0  0  0  0
    1.3894   -4.2436    0.0000 H   0  0  0  0  0  0  0  0  0  0  0  0
    1.7880   -4.9338    0.0000 H   0  0  0  0  0  0  0  0  0  0  0  0
    3.9441   -4.9338    0.0000 H   0  0  0  0  0  0  0  0  0  0  0  0
    4.3426   -4.2436    0.0000 H   0  0  0  0  0  0  0  0  0  0  0  0
    2.6540   -1.2686    0.0000 H   0  0  0  0  0  0  0  0  0  0  0  0
    2.2554   -1.9589    0.0000 H   0  0  0  0  0  0  0  0  0  0  0  0
    2.2460   -5.8512    0.0000 H   0  0  0  0  0  0  0  0  0  0  0  0
    2.8660   -6.4712    0.0000 H   0  0  0  0  0  0  0  0  0  0  0  0
    3.4860   -5.8512    0.0000 H   0  0  0  0  0  0  0  0  0  0  0  0
    4.5981   -2.4712    0.0000 H   0  0  0  0  0  0  0  0  0  0  0  0
    3.1951   -0.0412    0.0000 H   0  0  0  0  0  0  0  0  0  0  0  0
    6.0010   -1.6612    0.0000 H   0  0  0  0  0  0  0  0  0  0  0  0
    4.5981    0.7688    0.0000 H   0  0  0  0  0  0  0  0  0  0  0  0
    5.7932    1.4588    0.0000 H   0  0  0  0  0  0  0  0  0  0  0  0
    6.6592    2.9588    0.0000 H   0  0  0  0  0  0  0  0  0  0  0  0
    8.0622    0.5288    0.0000 H   0  0  0  0  0  0  0  0  0  0  0  0
    9.4651    1.3388    0.0000 H   0  0  0  0  0  0  0  0  0  0  0  0
    8.5991    4.4588    0.0000 H   0  0  0  0  0  0  0  0  0  0  0  0
   10.1042    2.6118    0.0000 H   0  0  0  0  0  0  0  0  0  0  0  0
   10.3312    3.4588    0.0000 H   0  0  0  0  0  0  0  0  0  0  0  0
    9.4842    3.6857    0.0000 H   0  0  0  0  0  0  0  0  0  0  0  0
    5.8613    6.4176    0.0000 H   0  0  0  0  0  0  0  0  0  0  0  0
    4.5766    3.4655    0.0000 H   0  0  0  0  0  0  0  0  0  0  0  0
    4.2834    6.2561    0.0000 H   0  0  0  0  0  0  0  0  0  0  0  0
    2.9655    3.2962    0.0000 H   0  0  0  0  0  0  0  0  0  0  0  0
    2.0133    4.6068    0.0000 H   0  0  0  0  0  0  0  0  0  0  0  0
  1 29  1  0  0  0  0
  1 31  1  0  0  0  0
  2 21  2  0  0  0  0
  3  9  1  0  0  0  0
  3 10  1  0  0  0  0
  3 13  1  0  0  0  0
  4 11  1  0  0  0  0
  4 12  1  0  0  0  0
  4 14  1  0  0  0  0
  5 21  1  0  0  0  0
  5 22  1  0  0  0  0
  5 54  1  0  0  0  0
  6 23  1  0  0  0  0
  6 29  1  0  0  0  0
  6 58  1  0  0  0  0
  7 29  2  0  0  0  0
  7 30  1  0  0  0  0
  8 34  1  0  0  0  0
  8 36  2  0  0  0  0
  9 11  1  0  0  0  0
  9 37  1  0  0  0  0
  9 38  1  0  0  0  0
 10 12  1  0  0  0  0
 10 39  1  0  0  0  0
 10 40  1  0  0  0  0
 11 41  1  0  0  0  0
 11 42  1  0  0  0  0
 12 43  1  0  0  0  0
 12 44  1  0  0  0  0
 13 15  1  0  0  0  0
 13 45  1  0  0  0  0
 13 46  1  0  0  0  0
 14 47  1  0  0  0  0
 14 48  1  0  0  0  0
 14 49  1  0  0  0  0
 15 16  2  0  0  0  0
 15 17  1  0  0  0  0
 16 18  1  0  0  0  0
 16 50  1  0  0  0  0
 17 19  2  0  0  0  0
 17 51  1  0  0  0  0
 18 20  2  0  0  0  0
 18 52  1  0  0  0  0
 19 20  1  0  0  0  0
 19 53  1  0  0  0  0
 20 21  1  0  0  0  0
 22 24  2  0  0  0  0
 22 26  1  0  0  0  0
 23 24  1  0  0  0  0
 23 25  2  0  0  0  0
 24 55  1  0  0  0  0
 25 27  1  0  0  0  0
 25 28  1  0  0  0  0
 26 27  2  0  0  0  0
 26 56  1  0  0  0  0
 27 57  1  0  0  0  0
 28 59  1  0  0  0  0
 28 60  1  0  0  0  0
 28 61  1  0  0  0  0
 30 31  2  0  0  0  0
 30 32  1  0  0  0  0
 31 62  1  0  0  0  0
 32 33  1  0  0  0  0
 32 34  2  0  0  0  0
 33 35  2  0  0  0  0
 33 63  1  0  0  0  0
 34 64  1  0  0  0  0
 35 36  1  0  0  0  0
 35 65  1  0  0  0  0
 36 66  1  0  0  0  0
M  END
> <PUBCHEM_COMPOUND_CID>
10074640

> <PUBCHEM_COMPOUND_CANONICALIZED>
1

> <PUBCHEM_CACTVS_COMPLEXITY>
696

> <PUBCHEM_CACTVS_HBOND_ACCEPTOR>
7

> <PUBCHEM_CACTVS_HBOND_DONOR>
2

> <PUBCHEM_CACTVS_ROTATABLE_BOND>
7

> <PUBCHEM_CACTVS_SUBSKEYS>
AAADceB7oABAAAAAAAAAAAAAAAAAAWAAAAA8eIEAAAAAAAAB9AAAHgQQAAAADAjF3gS/0ZPIEAisAzV3dACC8Kl1CjkJ2DU4ZNiIYPLg3dGUIQholALIyacYiACOSAAAAAQCAACQAAAACAQAAAAAAAAAAA==

> <PUBCHEM_IUPAC_OPENEYE_NAME>
4-[(4-methylpiperazin-1-yl)methyl]-N-[4-methyl-3-[[4-(3-pyridyl)thiazol-2-yl]amino]phenyl]benzamide

> <PUBCHEM_IUPAC_CAS_NAME>
4-[(4-methyl-1-piperazinyl)methyl]-N-[4-methyl-3-[[4-(3-pyridinyl)-2-thiazolyl]amino]phenyl]benzamide

> <PUBCHEM_IUPAC_NAME>
4-[(4-methylpiperazin-1-yl)methyl]-N-[4-methyl-3-[(4-pyridin-3-yl-1,3-thiazol-2-yl)amino]phenyl]benzamide

> <PUBCHEM_IUPAC_SYSTEMATIC_NAME>
4-[(4-methylpiperazin-1-yl)methyl]-N-[4-methyl-3-[(4-pyridin-3-yl-1,3-thiazol-2-yl)amino]phenyl]benzamide

> <PUBCHEM_IUPAC_TRADITIONAL_NAME>
4-[(4-methylpiperazino)methyl]-N-[4-methyl-3-[[4-(3-pyridyl)thiazol-2-yl]amino]phenyl]benzamide

> <PUBCHEM_IUPAC_INCHI>
InChI=1S/C28H30N6OS/c1-20-5-10-24(16-25(20)31-28-32-26(19-36-28)23-4-3-11-29-17-23)30-27(35)22-8-6-21(7-9-22)18-34-14-12-33(2)13-15-34/h3-11,16-17,19H,12-15,18H2,1-2H3,(H,30,35)(H,31,32)

> <PUBCHEM_IUPAC_INCHIKEY>
WJEOLQLKVOPQFV-UHFFFAOYSA-N

> <PUBCHEM_XLOGP3_AA>
4.3

> <PUBCHEM_EXACT_MASS>
498.22

> <PUBCHEM_MOLECULAR_FORMULA>
C28H30N6OS

> <PUBCHEM_MOLECULAR_WEIGHT>
498.649

> <PUBCHEM_OPENEYE_CAN_SMILES>
CC1=C(C=C(C=C1)NC(=O)C2=CC=C(C=C2)CN3CCN(CC3)C)NC4=NC(=CS4)C5=CN=CC=C5

> <PUBCHEM_OPENEYE_ISO_SMILES>
CC1=C(C=C(C=C1)NC(=O)C2=CC=C(C=C2)CN3CCN(CC3)C)NC4=NC(=CS4)C5=CN=CC=C5

> <PUBCHEM_CACTVS_TPSA>
102

> <PUBCHEM_MONOISOTOPIC_WEIGHT>
498.22

> <PUBCHEM_TOTAL_CHARGE>
0

> <PUBCHEM_HEAVY_ATOM_COUNT>
36

> <PUBCHEM_ATOM_DEF_STEREO_COUNT>
0

> <PUBCHEM_ATOM_UDEF_STEREO_COUNT>
0

> <PUBCHEM_BOND_DEF_STEREO_COUNT>
0

> <PUBCHEM_BOND_UDEF_STEREO_COUNT>
0

> <PUBCHEM_ISOTOPIC_ATOM_COUNT>
0

> <PUBCHEM_COMPONENT_COUNT>
1

> <PUBCHEM_CACTVS_TAUTO_COUNT>
48

> <PUBCHEM_COORDINATE_TYPE>
1
5
255

> <PUBCHEM_BONDANNOTATIONS>
1  29  8
1  31  8
15  16  8
15  17  8
16  18  8
17  19  8
18  20  8
19  20  8
22  24  8
22  26  8
23  24  8
23  25  8
25  27  8
26  27  8
30  31  8
32  33  8
32  34  8
33  35  8
35  36  8
7  29  8
7  30  8
8  34  8
8  36  8

$$$$
25126798
  -OEChem-11021605012D

 41 44  0     1  0  0  0  0  0999 V2000
    4.7579    0.8006    0.0000 N   0  0  0  0  0  0  0  0  0  0  0  0
    5.7579    0.8006    0.0000 N   0  0  0  0  0  0  0  0  0  0  0  0
    4.3918   -2.2383    0.0000 N   0  0  0  0  0  0  0  0  0  0  0  0
    2.0000    3.1231    0.0000 N   0  0  0  0  0  0  0  0  0  0  0  0
    7.0701   -3.5430    0.0000 N   0  0  0  0  0  0  0  0  0  0  0  0
    5.2579   -3.7383    0.0000 N   0  0  0  0  0  0  0  0  0  0  0  0
    4.5768    2.5231    0.0000 C   0  0  0  0  0  0  0  0  0  0  0  0
    5.5550    2.7311    0.0000 C   0  0  0  0  0  0  0  0  0  0  0  0
    4.0768    3.3892    0.0000 C   0  0  0  0  0  0  0  0  0  0  0  0
    4.1701    1.6096    0.0000 C   0  0  1  0  0  0  0  0  0  0  0  0
    5.6595    3.7256    0.0000 C   0  0  0  0  0  0  0  0  0  0  0  0
    4.7460    4.1323    0.0000 C   0  0  0  0  0  0  0  0  0  0  0  0
    3.1756    1.5051    0.0000 C   0  0  0  0  0  0  0  0  0  0  0  0
    4.4489   -0.1505    0.0000 C   0  0  0  0  0  0  0  0  0  0  0  0
    5.2579   -0.7383    0.0000 C   0  0  0  0  0  0  0  0  0  0  0  0
    2.5878    2.3141    0.0000 C   0  0  0  0  0  0  0  0  0  0  0  0
    6.0669   -0.1505    0.0000 C   0  0  0  0  0  0  0  0  0  0  0  0
    5.2579   -1.7383    0.0000 C   0  0  0  0  0  0  0  0  0  0  0  0
    6.1239   -2.2383    0.0000 C   0  0  0  0  0  0  0  0  0  0  0  0
    6.1239   -3.2383    0.0000 C   0  0  0  0  0  0  0  0  0  0  0  0
    7.0701   -1.9335    0.0000 C   0  0  0  0  0  0  0  0  0  0  0  0
    7.6537   -2.7383    0.0000 C   0  0  0  0  0  0  0  0  0  0  0  0
    4.3918   -3.2383    0.0000 C   0  0  0  0  0  0  0  0  0  0  0  0
    3.9577    2.4907    0.0000 H   0  0  0  0  0  0  0  0  0  0  0  0
    5.6198    2.1144    0.0000 H   0  0  0  0  0  0  0  0  0  0  0  0
    6.1750    2.7311    0.0000 H   0  0  0  0  0  0  0  0  0  0  0  0
    3.6620    3.8499    0.0000 H   0  0  0  0  0  0  0  0  0  0  0  0
    3.5752    3.0247    0.0000 H   0  0  0  0  0  0  0  0  0  0  0  0
    3.9179    1.0432    0.0000 H   0  0  0  0  0  0  0  0  0  0  0  0
    6.2660    3.5967    0.0000 H   0  0  0  0  0  0  0  0  0  0  0  0
    5.8511    4.3152    0.0000 H   0  0  0  0  0  0  0  0  0  0  0  0
    5.0560    4.6692    0.0000 H   0  0  0  0  0  0  0  0  0  0  0  0
    4.2444    4.4967    0.0000 H   0  0  0  0  0  0  0  0  0  0  0  0
    2.6183    1.2333    0.0000 H   0  0  0  0  0  0  0  0  0  0  0  0
    3.3465    0.9091    0.0000 H   0  0  0  0  0  0  0  0  0  0  0  0
    3.8592   -0.3421    0.0000 H   0  0  0  0  0  0  0  0  0  0  0  0
    6.6566   -0.3421    0.0000 H   0  0  0  0  0  0  0  0  0  0  0  0
    7.2627   -1.3442    0.0000 H   0  0  0  0  0  0  0  0  0  0  0  0
    7.2627   -4.1323    0.0000 H   0  0  0  0  0  0  0  0  0  0  0  0
    8.2737   -2.7383    0.0000 H   0  0  0  0  0  0  0  0  0  0  0  0
    3.8549   -3.5483    0.0000 H   0  0  0  0  0  0  0  0  0  0  0  0
  1  2  1  0  0  0  0
  1 10  1  0  0  0  0
  1 14  1  0  0  0  0
  2 17  2  0  0  0  0
  3 18  1  0  0  0  0
  3 23  2  0  0  0  0
  4 16  3  0  0  0  0
  5 20  1  0  0  0  0
  5 22  1  0  0  0  0
  5 39  1  0  0  0  0
  6 20  2  0  0  0  0
  6 23  1  0  0  0  0
  7  8  1  0  0  0  0
  7  9  1  0  0  0  0
  7 10  1  0  0  0  0
  7 24  1  0  0  0  0
  8 11  1  0  0  0  0
  8 25  1  0  0  0  0
  8 26  1  0  0  0  0
  9 12  1  0  0  0  0
  9 27  1  0  0  0  0
  9 28  1  0  0  0  0
 10 13  1  6  0  0  0
 10 29  1  0  0  0  0
 11 12  1  0  0  0  0
 11 30  1  0  0  0  0
 11 31  1  0  0  0  0
 12 32  1  0  0  0  0
 12 33  1  0  0  0  0
 13 16  1  0  0  0  0
 13 34  1  0  0  0  0
 13 35  1  0  0  0  0
 14 15  2  0  0  0  0
 14 36  1  0  0  0  0
 15 17  1  0  0  0  0
 15 18  1  0  0  0  0
 17 37  1  0  0  0  0
 18 19  2  0  0  0  0
 19 20  1  0  0  0  0
 19 21  1  0  0  0  0
 21 22  2  0  0  0  0
 21 38  1  0  0  0  0
 22 40  1  0  0  0  0
 23 41  1  0  0  0  0
M  END
> <PUBCHEM_COMPOUND_CID>
25126798

> <PUBCHEM_COMPOUND_CANONICALIZED>
1

> <PUBCHEM_CACTVS_COMPLEXITY>
453

> <PUBCHEM_CACTVS_HBOND_ACCEPTOR>
4

> <PUBCHEM_CACTVS_HBOND_DONOR>
1

> <PUBCHEM_CACTVS_ROTATABLE_BOND>
4

> <PUBCHEM_CACTVS_SUBSKEYS>
AAADceB7gAAAAAAAAAAAAAAAAAAAAeLEAAAsAAAAAAAAAFgB/gAAHAAYAAAADSjBHwQ9sN7JkACyBzZnZACShCmxgqAZ2aA4ZJiIqOLA2dGEpAhomALIyC8QgIAOAAAAAAAAAAAAAAAAAAAAAAAAAAAAAA==

> <PUBCHEM_IUPAC_OPENEYE_NAME>
(3R)-3-cyclopentyl-3-[4-(7H-pyrrolo[2,3-d]pyrimidin-4-yl)pyrazol-1-yl]propanenitrile

> <PUBCHEM_IUPAC_CAS_NAME>
(3R)-3-cyclopentyl-3-[4-(7H-pyrrolo[2,3-d]pyrimidin-4-yl)-1-pyrazolyl]propanenitrile

> <PUBCHEM_IUPAC_NAME>
(3R)-3-cyclopentyl-3-[4-(7H-pyrrolo[2,3-d]pyrimidin-4-yl)pyrazol-1-yl]propanenitrile

> <PUBCHEM_IUPAC_SYSTEMATIC_NAME>
(3R)-3-cyclopentyl-3-[4-(7H-pyrrolo[2,3-d]pyrimidin-4-yl)pyrazol-1-yl]propanenitrile

> <PUBCHEM_IUPAC_TRADITIONAL_NAME>
(3R)-3-cyclopentyl-3-[4-(7H-pyrrolo[2,3-d]pyrimidin-4-yl)pyrazol-1-yl]propionitrile

> <PUBCHEM_IUPAC_INCHI>
InChI=1S/C17H18N6/c18-7-5-15(12-3-1-2-4-12)23-10-13(9-22-23)16-14-6-8-19-17(14)21-11-20-16/h6,8-12,15H,1-5H2,(H,19,20,21)/t15-/m1/s1

> <PUBCHEM_IUPAC_INCHIKEY>
HFNKQEVNSGCOJV-OAHLLOKOSA-N

> <PUBCHEM_XLOGP3_AA>
2.1

> <PUBCHEM_EXACT_MASS>
306.159

> <PUBCHEM_MOLECULAR_FORMULA>
C17H18N6

> <PUBCHEM_MOLECULAR_WEIGHT>
306.373

> <PUBCHEM_OPENEYE_CAN_SMILES>
C1CCC(C1)C(CC#N)N2C=C(C=N2)C3=C4C=CNC4=NC=N3

> <PUBCHEM_OPENEYE_ISO_SMILES>
C1CCC(C1)[C@@H](CC#N)N2C=C(C=N2)C3=C4C=CNC4=NC=N3

> <PUBCHEM_CACTVS_TPSA>
83.2

> <PUBCHEM_MONOISOTOPIC_WEIGHT>
306.159

> <PUBCHEM_TOTAL_CHARGE>
0

> <PUBCHEM_HEAVY_ATOM_COUNT>
23

> <PUBCHEM_ATOM_DEF_STEREO_COUNT>
1

> <PUBCHEM_ATOM_UDEF_STEREO_COUNT>
0

> <PUBCHEM_BOND_DEF_STEREO_COUNT>
0

> <PUBCHEM_BOND_UDEF_STEREO_COUNT>
0

> <PUBCHEM_ISOTOPIC_ATOM_COUNT>
0

> <PUBCHEM_COMPONENT_COUNT>
1

> <PUBCHEM_CACTVS_TAUTO_COUNT>
3

> <PUBCHEM_COORDINATE_TYPE>
1
5
255

> <PUBCHEM_BONDANNOTATIONS>
1  14  8
1  2  8
10  13  6
14  15  8
15  17  8
18  19  8
19  20  8
19  21  8
2  17  8
21  22  8
3  18  8
3  23  8
5  20  8
5  22  8
6  20  8
6  23  8

$$$$
24889392
  -OEChem-11021605012D

 72 77  0     0  0  0  0  0  0999 V2000
    9.9538    2.3284    0.0000 S   0  0  0  0  0  0  0  0  0  0  0  0
    2.0000    3.5793    0.0000 O   0  0  0  0  0  0  0  0  0  0  0  0
    6.5820    3.6502    0.0000 O   0  0  0  0  0  0  0  0  0  0  0  0
   17.2681   -4.3266    0.0000 O   0  0  0  0  0  0  0  0  0  0  0  0
   14.5099   -2.3722    0.0000 O   0  0  0  0  0  0  0  0  0  0  0  0
    3.9579    3.9876    0.0000 N   0  0  0  0  0  0  0  0  0  0  0  0
    9.4538    0.7896    0.0000 N   0  0  0  0  0  0  0  0  0  0  0  0
   11.0655    0.7910    0.0000 N   0  0  0  0  0  0  0  0  0  0  0  0
   16.3546   -4.7333    0.0000 N   0  0  0  0  0  0  0  0  0  0  0  0
   14.6909   -4.0947    0.0000 N   0  0  0  0  0  0  0  0  0  0  0  0
   13.1086   -3.3902    0.0000 N   0  0  0  0  0  0  0  0  0  0  0  0
    3.2916    4.7333    0.0000 C   0  0  0  0  0  0  0  0  0  0  0  0
    3.6452    3.0378    0.0000 C   0  0  0  0  0  0  0  0  0  0  0  0
    4.9368    4.1918    0.0000 C   0  0  0  0  0  0  0  0  0  0  0  0
    2.6663    2.8336    0.0000 C   0  0  0  0  0  0  0  0  0  0  0  0
    2.3127    4.5292    0.0000 C   0  0  0  0  0  0  0  0  0  0  0  0
   17.9067   -2.6630    0.0000 C   0  0  0  0  0  0  0  0  0  0  0  0
    5.6031    3.4460    0.0000 C   0  0  0  0  0  0  0  0  0  0  0  0
   17.1636   -3.3321    0.0000 C   0  0  0  0  0  0  0  0  0  0  0  0
   18.6499   -1.9938    0.0000 C   0  0  0  0  0  0  0  0  0  0  0  0
   18.5759   -3.4061    0.0000 C   0  0  0  0  0  0  0  0  0  0  0  0
   17.2376   -1.9198    0.0000 C   0  0  0  0  0  0  0  0  0  0  0  0
    8.6448    1.3774    0.0000 C   0  0  0  0  0  0  0  0  0  0  0  0
    8.9538    2.3284    0.0000 C   0  0  0  0  0  0  0  0  0  0  0  0
    7.2483    2.9045    0.0000 C   0  0  0  0  0  0  0  0  0  0  0  0
   10.2628    1.3774    0.0000 C   0  0  0  0  0  0  0  0  0  0  0  0
    8.2688    3.1132    0.0000 C   0  0  0  0  0  0  0  0  0  0  0  0
    7.6293    1.1451    0.0000 C   0  0  0  0  0  0  0  0  0  0  0  0
    9.7634   -0.1550    0.0000 C   0  0  0  0  0  0  0  0  0  0  0  0
   16.1855   -3.1242    0.0000 C   0  0  0  0  0  0  0  0  0  0  0  0
   10.7575   -0.1542    0.0000 C   0  0  0  0  0  0  0  0  0  0  0  0
    6.9264    1.9138    0.0000 C   0  0  0  0  0  0  0  0  0  0  0  0
   15.6855   -3.9902    0.0000 C   0  0  0  0  0  0  0  0  0  0  0  0
   11.3453   -0.9632    0.0000 C   0  0  0  0  0  0  0  0  0  0  0  0
   10.9385   -1.8767    0.0000 C   0  0  0  0  0  0  0  0  0  0  0  0
   12.3398   -0.8587    0.0000 C   0  0  0  0  0  0  0  0  0  0  0  0
   12.5208   -2.5812    0.0000 C   0  0  0  0  0  0  0  0  0  0  0  0
   11.5263   -2.6858    0.0000 C   0  0  0  0  0  0  0  0  0  0  0  0
   12.9276   -1.6677    0.0000 C   0  0  0  0  0  0  0  0  0  0  0  0
   14.1031   -3.2857    0.0000 C   0  0  0  0  0  0  0  0  0  0  0  0
    3.6644    2.4181    0.0000 H   0  0  0  0  0  0  0  0  0  0  0  0
    4.2588    2.9491    0.0000 H   0  0  0  0  0  0  0  0  0  0  0  0
    3.8187    5.0599    0.0000 H   0  0  0  0  0  0  0  0  0  0  0  0
    3.0616    5.3091    0.0000 H   0  0  0  0  0  0  0  0  0  0  0  0
    5.4639    4.5183    0.0000 H   0  0  0  0  0  0  0  0  0  0  0  0
    4.7068    4.7675    0.0000 H   0  0  0  0  0  0  0  0  0  0  0  0
    2.2934    5.1489    0.0000 H   0  0  0  0  0  0  0  0  0  0  0  0
    1.6990    4.6179    0.0000 H   0  0  0  0  0  0  0  0  0  0  0  0
    2.1392    2.5071    0.0000 H   0  0  0  0  0  0  0  0  0  0  0  0
    2.8963    2.2579    0.0000 H   0  0  0  0  0  0  0  0  0  0  0  0
    5.0760    3.1195    0.0000 H   0  0  0  0  0  0  0  0  0  0  0  0
    5.8331    2.8703    0.0000 H   0  0  0  0  0  0  0  0  0  0  0  0
   17.6984   -1.5050    0.0000 H   0  0  0  0  0  0  0  0  0  0  0  0
   16.8228   -1.4591    0.0000 H   0  0  0  0  0  0  0  0  0  0  0  0
   16.7769   -2.3347    0.0000 H   0  0  0  0  0  0  0  0  0  0  0  0
   18.1151   -3.8210    0.0000 H   0  0  0  0  0  0  0  0  0  0  0  0
   18.9907   -3.8668    0.0000 H   0  0  0  0  0  0  0  0  0  0  0  0
   19.0366   -2.9912    0.0000 H   0  0  0  0  0  0  0  0  0  0  0  0
   19.0648   -2.4546    0.0000 H   0  0  0  0  0  0  0  0  0  0  0  0
   19.1106   -1.5790    0.0000 H   0  0  0  0  0  0  0  0  0  0  0  0
   18.2350   -1.5331    0.0000 H   0  0  0  0  0  0  0  0  0  0  0  0
    8.4672    3.7006    0.0000 H   0  0  0  0  0  0  0  0  0  0  0  0
    7.4446    0.5533    0.0000 H   0  0  0  0  0  0  0  0  0  0  0  0
    9.3998   -0.6572    0.0000 H   0  0  0  0  0  0  0  0  0  0  0  0
   15.9333   -2.5578    0.0000 H   0  0  0  0  0  0  0  0  0  0  0  0
    6.3205    1.7826    0.0000 H   0  0  0  0  0  0  0  0  0  0  0  0
   10.3219   -1.9415    0.0000 H   0  0  0  0  0  0  0  0  0  0  0  0
   12.5920   -0.2923    0.0000 H   0  0  0  0  0  0  0  0  0  0  0  0
   14.4388   -4.6611    0.0000 H   0  0  0  0  0  0  0  0  0  0  0  0
   11.2741   -3.2522    0.0000 H   0  0  0  0  0  0  0  0  0  0  0  0
   13.5442   -1.6029    0.0000 H   0  0  0  0  0  0  0  0  0  0  0  0
   12.8565   -3.9566    0.0000 H   0  0  0  0  0  0  0  0  0  0  0  0
  1 24  1  0  0  0  0
  1 26  1  0  0  0  0
  2 15  1  0  0  0  0
  2 16  1  0  0  0  0
  3 18  1  0  0  0  0
  3 25  1  0  0  0  0
  4  9  1  0  0  0  0
  4 19  1  0  0  0  0
  5 40  2  0  0  0  0
  6 12  1  0  0  0  0
  6 13  1  0  0  0  0
  6 14  1  0  0  0  0
  7 23  1  0  0  0  0
  7 26  1  0  0  0  0
  7 29  1  0  0  0  0
  8 26  2  0  0  0  0
  8 31  1  0  0  0  0
  9 33  2  0  0  0  0
 10 33  1  0  0  0  0
 10 40  1  0  0  0  0
 10 69  1  0  0  0  0
 11 37  1  0  0  0  0
 11 40  1  0  0  0  0
 11 72  1  0  0  0  0
 12 16  1  0  0  0  0
 12 43  1  0  0  0  0
 12 44  1  0  0  0  0
 13 15  1  0  0  0  0
 13 41  1  0  0  0  0
 13 42  1  0  0  0  0
 14 18  1  0  0  0  0
 14 45  1  0  0  0  0
 14 46  1  0  0  0  0
 15 49  1  0  0  0  0
 15 50  1  0  0  0  0
 16 47  1  0  0  0  0
 16 48  1  0  0  0  0
 17 19  1  0  0  0  0
 17 20  1  0  0  0  0
 17 21  1  0  0  0  0
 17 22  1  0  0  0  0
 18 51  1  0  0  0  0
 18 52  1  0  0  0  0
 19 30  2  0  0  0  0
 20 59  1  0  0  0  0
 20 60  1  0  0  0  0
 20 61  1  0  0  0  0
 21 56  1  0  0  0  0
 21 57  1  0  0  0  0
 21 58  1  0  0  0  0
 22 53  1  0  0  0  0
 22 54  1  0  0  0  0
 22 55  1  0  0  0  0
 23 24  2  0  0  0  0
 23 28  1  0  0  0  0
 24 27  1  0  0  0  0
 25 27  2  0  0  0  0
 25 32  1  0  0  0  0
 27 62  1  0  0  0  0
 28 32  2  0  0  0  0
 28 63  1  0  0  0  0
 29 31  2  0  0  0  0
 29 64  1  0  0  0  0
 30 33  1  0  0  0  0
 30 65  1  0  0  0  0
 31 34  1  0  0  0  0
 32 66  1  0  0  0  0
 34 35  2  0  0  0  0
 34 36  1  0  0  0  0
 35 38  1  0  0  0  0
 35 67  1  0  0  0  0
 36 39  2  0  0  0  0
 36 68  1  0  0  0  0
 37 38  2  0  0  0  0
 37 39  1  0  0  0  0
 38 70  1  0  0  0  0
 39 71  1  0  0  0  0
M  END
> <PUBCHEM_COMPOUND_CID>
24889392

> <PUBCHEM_COMPOUND_CANONICALIZED>
1

> <PUBCHEM_CACTVS_COMPLEXITY>
849

> <PUBCHEM_CACTVS_HBOND_ACCEPTOR>
8

> <PUBCHEM_CACTVS_HBOND_DONOR>
2

> <PUBCHEM_CACTVS_ROTATABLE_BOND>
8

> <PUBCHEM_CACTVS_SUBSKEYS>
AAADcfB7uABAAAAAAAAAAAAAAAAAAWLFgAA8YIAAAAAWAFgB/AAAHgQUAAAADgzh3gY/97fcHAitA7Z3dgCD+K11Orhp2D0+fNqOburkuZuXOKju1RvY6GewwIAPCEAABAAAAQAQgAAIAAACAAAAAAAAAA==

> <PUBCHEM_IUPAC_OPENEYE_NAME>
1-(5-tert-butylisoxazol-3-yl)-3-[4-[6-(2-morpholinoethoxy)imidazo[2,1-b][1,3]benzothiazol-2-yl]phenyl]urea

> <PUBCHEM_IUPAC_CAS_NAME>
1-(5-tert-butyl-3-isoxazolyl)-3-[4-[6-[2-(4-morpholinyl)ethoxy]-2-imidazo[2,1-b][1,3]benzothiazolyl]phenyl]urea

> <PUBCHEM_IUPAC_NAME>
1-(5-tert-butyl-1,2-oxazol-3-yl)-3-[4-[6-(2-morpholin-4-ylethoxy)imidazo[2,1-b][1,3]benzothiazol-2-yl]phenyl]urea

> <PUBCHEM_IUPAC_SYSTEMATIC_NAME>
1-(5-tert-butyl-1,2-oxazol-3-yl)-3-[4-[6-(2-morpholin-4-ylethoxy)imidazo[2,1-b][1,3]benzothiazol-2-yl]phenyl]urea

> <PUBCHEM_IUPAC_TRADITIONAL_NAME>
1-(5-tert-butylisoxazol-3-yl)-3-[4-[6-(2-morpholinoethoxy)imidazo[2,1-b][1,3]benzothiazol-2-yl]phenyl]urea

> <PUBCHEM_IUPAC_INCHI>
InChI=1S/C29H32N6O4S/c1-29(2,3)25-17-26(33-39-25)32-27(36)30-20-6-4-19(5-7-20)22-18-35-23-9-8-21(16-24(23)40-28(35)31-22)38-15-12-34-10-13-37-14-11-34/h4-9,16-18H,10-15H2,1-3H3,(H2,30,32,33,36)

> <PUBCHEM_IUPAC_INCHIKEY>
CVWXJKQAOSCOAB-UHFFFAOYSA-N

> <PUBCHEM_XLOGP3_AA>
5.6

> <PUBCHEM_EXACT_MASS>
560.221

> <PUBCHEM_MOLECULAR_FORMULA>
C29H32N6O4S

> <PUBCHEM_MOLECULAR_WEIGHT>
560.673

> <PUBCHEM_OPENEYE_CAN_SMILES>
CC(C)(C)C1=CC(=NO1)NC(=O)NC2=CC=C(C=C2)C3=CN4C5=C(C=C(C=C5)OCCN6CCOCC6)SC4=N3

> <PUBCHEM_OPENEYE_ISO_SMILES>
CC(C)(C)C1=CC(=NO1)NC(=O)NC2=CC=C(C=C2)C3=CN4C5=C(C=C(C=C5)OCCN6CCOCC6)SC4=N3

> <PUBCHEM_CACTVS_TPSA>
134

> <PUBCHEM_MONOISOTOPIC_WEIGHT>
560.221

> <PUBCHEM_TOTAL_CHARGE>
0

> <PUBCHEM_HEAVY_ATOM_COUNT>
40

> <PUBCHEM_ATOM_DEF_STEREO_COUNT>
0

> <PUBCHEM_ATOM_UDEF_STEREO_COUNT>
0

> <PUBCHEM_BOND_DEF_STEREO_COUNT>
0

> <PUBCHEM_BOND_UDEF_STEREO_COUNT>
0

> <PUBCHEM_ISOTOPIC_ATOM_COUNT>
0

> <PUBCHEM_COMPONENT_COUNT>
1

> <PUBCHEM_CACTVS_TAUTO_COUNT>
5

> <PUBCHEM_COORDINATE_TYPE>
1
5
255

> <PUBCHEM_BONDANNOTATIONS>
1  24  8
1  26  8
19  30  8
23  24  8
23  28  8
24  27  8
25  27  8
25  32  8
28  32  8
29  31  8
30  33  8
34  35  8
34  36  8
35  38  8
36  39  8
37  38  8
37  39  8
4  19  8
4  9  8
7  23  8
7  26  8
7  29  8
8  26  8
8  31  8
9  33  8

$$$$
176167
  -OEChem-11021605012D

 68 74  0     0  0  0  0  0  0999 V2000
    3.4026    4.1084    0.0000 O   0  0  0  0  0  0  0  0  0  0  0  0
    6.7523    5.1903    0.0000 O   0  0  0  0  0  0  0  0  0  0  0  0
    4.6783    0.7366    0.0000 N   0  0  0  0  0  0  0  0  0  0  0  0
    5.6103   -2.1150    0.0000 N   0  0  0  0  0  0  0  0  0  0  0  0
    4.9917    4.9146    0.0000 N   0  0  0  0  0  0  0  0  0  0  0  0
    7.6900    1.7094    0.0000 N   0  0  0  0  0  0  0  0  0  0  0  0
    5.5637   -4.7603    0.0000 N   0  0  0  0  0  0  0  0  0  0  0  0
    4.9889   -0.2139    0.0000 C   0  0  0  0  0  0  0  0  0  0  0  0
    4.3211   -0.9582    0.0000 C   0  0  0  0  0  0  0  0  0  0  0  0
    5.9674   -0.4201    0.0000 C   0  0  0  0  0  0  0  0  0  0  0  0
    6.2781   -1.3707    0.0000 C   0  0  0  0  0  0  0  0  0  0  0  0
    4.6318   -1.9087    0.0000 C   0  0  0  0  0  0  0  0  0  0  0  0
    3.7320    1.0413    0.0000 C   0  0  0  0  0  0  0  0  0  0  0  0
    5.2619    1.5413    0.0000 C   0  0  0  0  0  0  0  0  0  0  0  0
    5.9209   -3.0655    0.0000 C   0  0  0  0  0  0  0  0  0  0  0  0
    4.6783    2.3461    0.0000 C   0  0  0  0  0  0  0  0  0  0  0  0
    3.7320    2.0413    0.0000 C   0  0  0  0  0  0  0  0  0  0  0  0
    4.9889    3.2966    0.0000 C   0  0  0  0  0  0  0  0  0  0  0  0
    2.8660    0.5413    0.0000 C   0  0  0  0  0  0  0  0  0  0  0  0
    2.8660    2.5413    0.0000 C   0  0  0  0  0  0  0  0  0  0  0  0
    5.2531   -3.8098    0.0000 C   0  0  0  0  0  0  0  0  0  0  0  0
    5.9405    3.6040    0.0000 C   0  0  0  0  0  0  0  0  0  0  0  0
    2.0000    1.0413    0.0000 C   0  0  0  0  0  0  0  0  0  0  0  0
    4.4026    4.1066    0.0000 C   0  0  0  0  0  0  0  0  0  0  0  0
    2.0000    2.0413    0.0000 C   0  0  0  0  0  0  0  0  0  0  0  0
    6.7485    3.0148    0.0000 C   0  0  0  0  0  0  0  0  0  0  0  0
    5.9422    4.6040    0.0000 C   0  0  0  0  0  0  0  0  0  0  0  0
    7.6942    3.3211    0.0000 C   0  0  0  0  0  0  0  0  0  0  0  0
    4.2746   -3.6036    0.0000 C   0  0  0  0  0  0  0  0  0  0  0  0
    6.7459    2.0207    0.0000 C   0  0  0  0  0  0  0  0  0  0  0  0
    8.2792    2.5101    0.0000 C   0  0  0  0  0  0  0  0  0  0  0  0
    8.1041    4.2333    0.0000 C   0  0  0  0  0  0  0  0  0  0  0  0
    3.6067   -4.3479    0.0000 C   0  0  0  0  0  0  0  0  0  0  0  0
    9.2741    2.6112    0.0000 C   0  0  0  0  0  0  0  0  0  0  0  0
    4.8959   -5.5046    0.0000 C   0  0  0  0  0  0  0  0  0  0  0  0
    7.9941    0.7568    0.0000 C   0  0  0  0  0  0  0  0  0  0  0  0
    3.9174   -5.2984    0.0000 C   0  0  0  0  0  0  0  0  0  0  0  0
    9.0990    4.3344    0.0000 C   0  0  0  0  0  0  0  0  0  0  0  0
    9.6840    3.5233    0.0000 C   0  0  0  0  0  0  0  0  0  0  0  0
    5.4030    0.2475    0.0000 H   0  0  0  0  0  0  0  0  0  0  0  0
    3.9385   -0.4703    0.0000 H   0  0  0  0  0  0  0  0  0  0  0  0
    6.5812   -0.3328    0.0000 H   0  0  0  0  0  0  0  0  0  0  0  0
    5.9880    0.1995    0.0000 H   0  0  0  0  0  0  0  0  0  0  0  0
    3.7742   -1.2502    0.0000 H   0  0  0  0  0  0  0  0  0  0  0  0
    6.6607   -1.8586    0.0000 H   0  0  0  0  0  0  0  0  0  0  0  0
    6.8250   -1.0786    0.0000 H   0  0  0  0  0  0  0  0  0  0  0  0
    4.0179   -1.9961    0.0000 H   0  0  0  0  0  0  0  0  0  0  0  0
    4.6112   -2.5284    0.0000 H   0  0  0  0  0  0  0  0  0  0  0  0
    5.8819    1.5413    0.0000 H   0  0  0  0  0  0  0  0  0  0  0  0
    6.3035   -3.5534    0.0000 H   0  0  0  0  0  0  0  0  0  0  0  0
    6.4678   -2.7735    0.0000 H   0  0  0  0  0  0  0  0  0  0  0  0
    2.8660   -0.0787    0.0000 H   0  0  0  0  0  0  0  0  0  0  0  0
    2.8660    3.1613    0.0000 H   0  0  0  0  0  0  0  0  0  0  0  0
    1.4631    0.7313    0.0000 H   0  0  0  0  0  0  0  0  0  0  0  0
    1.4631    2.3513    0.0000 H   0  0  0  0  0  0  0  0  0  0  0  0
    4.8012    5.5046    0.0000 H   0  0  0  0  0  0  0  0  0  0  0  0
    4.0820   -3.0142    0.0000 H   0  0  0  0  0  0  0  0  0  0  0  0
    6.2431    1.6580    0.0000 H   0  0  0  0  0  0  0  0  0  0  0  0
    7.7414    4.7361    0.0000 H   0  0  0  0  0  0  0  0  0  0  0  0
    3.0000   -4.2200    0.0000 H   0  0  0  0  0  0  0  0  0  0  0  0
    9.6368    2.1083    0.0000 H   0  0  0  0  0  0  0  0  0  0  0  0
    5.0885   -6.0939    0.0000 H   0  0  0  0  0  0  0  0  0  0  0  0
    7.4035    0.5682    0.0000 H   0  0  0  0  0  0  0  0  0  0  0  0
    8.1826    0.1661    0.0000 H   0  0  0  0  0  0  0  0  0  0  0  0
    8.5848    0.9453    0.0000 H   0  0  0  0  0  0  0  0  0  0  0  0
    3.5033   -5.7598    0.0000 H   0  0  0  0  0  0  0  0  0  0  0  0
    9.3531    4.8999    0.0000 H   0  0  0  0  0  0  0  0  0  0  0  0
   10.3008    3.5860    0.0000 H   0  0  0  0  0  0  0  0  0  0  0  0
  1 24  2  0  0  0  0
  2 27  2  0  0  0  0
  3  8  1  0  0  0  0
  3 13  1  0  0  0  0
  3 14  1  0  0  0  0
  4 11  1  0  0  0  0
  4 12  1  0  0  0  0
  4 15  1  0  0  0  0
  5 24  1  0  0  0  0
  5 27  1  0  0  0  0
  5 56  1  0  0  0  0
  6 30  1  0  0  0  0
  6 31  1  0  0  0  0
  6 36  1  0  0  0  0
  7 21  1  0  0  0  0
  7 35  2  0  0  0  0
  8  9  1  0  0  0  0
  8 10  1  0  0  0  0
  8 40  1  0  0  0  0
  9 12  1  0  0  0  0
  9 41  1  0  0  0  0
  9 44  1  0  0  0  0
 10 11  1  0  0  0  0
 10 42  1  0  0  0  0
 10 43  1  0  0  0  0
 11 45  1  0  0  0  0
 11 46  1  0  0  0  0
 12 47  1  0  0  0  0
 12 48  1  0  0  0  0
 13 17  1  0  0  0  0
 13 19  2  0  0  0  0
 14 16  2  0  0  0  0
 14 49  1  0  0  0  0
 15 21  1  0  0  0  0
 15 50  1  0  0  0  0
 15 51  1  0  0  0  0
 16 17  1  0  0  0  0
 16 18  1  0  0  0  0
 17 20  2  0  0  0  0
 18 22  2  0  0  0  0
 18 24  1  0  0  0  0
 19 23  1  0  0  0  0
 19 52  1  0  0  0  0
 20 25  1  0  0  0  0
 20 53  1  0  0  0  0
 21 29  2  0  0  0  0
 22 26  1  0  0  0  0
 22 27  1  0  0  0  0
 23 25  2  0  0  0  0
 23 54  1  0  0  0  0
 25 55  1  0  0  0  0
 26 28  1  0  0  0  0
 26 30  2  0  0  0  0
 28 31  1  0  0  0  0
 28 32  2  0  0  0  0
 29 33  1  0  0  0  0
 29 57  1  0  0  0  0
 30 58  1  0  0  0  0
 31 34  2  0  0  0  0
 32 38  1  0  0  0  0
 32 59  1  0  0  0  0
 33 37  2  0  0  0  0
 33 60  1  0  0  0  0
 34 39  1  0  0  0  0
 34 61  1  0  0  0  0
 35 37  1  0  0  0  0
 35 62  1  0  0  0  0
 36 63  1  0  0  0  0
 36 64  1  0  0  0  0
 36 65  1  0  0  0  0
 37 66  1  0  0  0  0
 38 39  2  0  0  0  0
 38 67  1  0  0  0  0
 39 68  1  0  0  0  0
M  END
> <PUBCHEM_COMPOUND_CID>
176167

> <PUBCHEM_COMPOUND_CANONICALIZED>
1

> <PUBCHEM_CACTVS_COMPLEXITY>
974

> <PUBCHEM_CACTVS_HBOND_ACCEPTOR>
4

> <PUBCHEM_CACTVS_HBOND_DONOR>
1

> <PUBCHEM_CACTVS_ROTATABLE_BOND>
5

> <PUBCHEM_CACTVS_SUBSKEYS>
AAADceB/sAAAAAAAAAAAAAAAAAAAAWLEAAA8eIEAAAAAAFgB/gAAHgAQAAAADCjBngQ+wPPMEACoAzV3VACCgCAxAiAI2CE4ZNgIYPLA1ZGUIAhghCDIyQccicCegAAAAAACAAAAAAAAAAQAAAAAAAAAAA==

> <PUBCHEM_IUPAC_OPENEYE_NAME>
3-(1-methylindol-3-yl)-4-[1-[1-(2-pyridylmethyl)-4-piperidyl]indol-3-yl]pyrrole-2,5-dione

> <PUBCHEM_IUPAC_CAS_NAME>
3-(1-methyl-3-indolyl)-4-[1-[1-(2-pyridinylmethyl)-4-piperidinyl]-3-indolyl]pyrrole-2,5-dione

> <PUBCHEM_IUPAC_NAME>
3-(1-methylindol-3-yl)-4-[1-[1-(pyridin-2-ylmethyl)piperidin-4-yl]indol-3-yl]pyrrole-2,5-dione

> <PUBCHEM_IUPAC_SYSTEMATIC_NAME>
3-(1-methylindol-3-yl)-4-[1-[1-(pyridin-2-ylmethyl)piperidin-4-yl]indol-3-yl]pyrrole-2,5-dione

> <PUBCHEM_IUPAC_TRADITIONAL_NAME>
3-(1-methylindol-3-yl)-4-[1-[1-(2-pyridylmethyl)-4-piperidyl]indol-3-yl]-3-pyrroline-2,5-quinone

> <PUBCHEM_IUPAC_INCHI>
InChI=1S/C32H29N5O2/c1-35-19-25(23-9-2-4-11-27(23)35)29-30(32(39)34-31(29)38)26-20-37(28-12-5-3-10-24(26)28)22-13-16-36(17-14-22)18-21-8-6-7-15-33-21/h2-12,15,19-20,22H,13-14,16-18H2,1H3,(H,34,38,39)

> <PUBCHEM_IUPAC_INCHIKEY>
AXRCEOKUDYDWLF-UHFFFAOYSA-N

> <PUBCHEM_XLOGP3_AA>
3.7

> <PUBCHEM_EXACT_MASS>
515.232

> <PUBCHEM_MOLECULAR_FORMULA>
C32H29N5O2

> <PUBCHEM_MOLECULAR_WEIGHT>
515.617

> <PUBCHEM_OPENEYE_CAN_SMILES>
CN1C=C(C2=CC=CC=C21)C3=C(C(=O)NC3=O)C4=CN(C5=CC=CC=C54)C6CCN(CC6)CC7=CC=CC=N7

> <PUBCHEM_OPENEYE_ISO_SMILES>
CN1C=C(C2=CC=CC=C21)C3=C(C(=O)NC3=O)C4=CN(C5=CC=CC=C54)C6CCN(CC6)CC7=CC=CC=N7

> <PUBCHEM_CACTVS_TPSA>
72.2

> <PUBCHEM_MONOISOTOPIC_WEIGHT>
515.232

> <PUBCHEM_TOTAL_CHARGE>
0

> <PUBCHEM_HEAVY_ATOM_COUNT>
39

> <PUBCHEM_ATOM_DEF_STEREO_COUNT>
0

> <PUBCHEM_ATOM_UDEF_STEREO_COUNT>
0

> <PUBCHEM_BOND_DEF_STEREO_COUNT>
0

> <PUBCHEM_BOND_UDEF_STEREO_COUNT>
0

> <PUBCHEM_ISOTOPIC_ATOM_COUNT>
0

> <PUBCHEM_COMPONENT_COUNT>
1

> <PUBCHEM_CACTVS_TAUTO_COUNT>
9

> <PUBCHEM_COORDINATE_TYPE>
1
5
255

> <PUBCHEM_BONDANNOTATIONS>
13  17  8
13  19  8
14  16  8
16  17  8
17  20  8
19  23  8
20  25  8
21  29  8
23  25  8
26  28  8
26  30  8
28  31  8
28  32  8
29  33  8
3  13  8
3  14  8
31  34  8
32  38  8
33  37  8
34  39  8
35  37  8
38  39  8
6  30  8
6  31  8
7  21  8
7  35  8

$$$$
6450551
  -OEChem-11021605012D

 46 49  0     0  0  0  0  0  0999 V2000
    5.1350   -1.6565    0.0000 S   0  0  0  0  0  0  0  0  0  0  0  0
    4.2690   -3.1565    0.0000 O   0  0  0  0  0  0  0  0  0  0  0  0
    8.6793   -1.4612    0.0000 N   0  0  0  0  0  0  0  0  0  0  0  0
    9.2629   -0.6565    0.0000 N   0  0  0  0  0  0  0  0  0  0  0  0
    2.5369   -3.1565    0.0000 N   0  0  0  0  0  0  0  0  0  0  0  0
    9.6113    2.9998    0.0000 N   0  0  0  0  0  0  0  0  0  0  0  0
    7.7331   -0.1565    0.0000 C   0  0  0  0  0  0  0  0  0  0  0  0
    7.7331   -1.1565    0.0000 C   0  0  0  0  0  0  0  0  0  0  0  0
    8.6793    0.1482    0.0000 C   0  0  0  0  0  0  0  0  0  0  0  0
    6.8671   -1.6565    0.0000 C   0  0  0  0  0  0  0  0  0  0  0  0
    6.0010   -1.1565    0.0000 C   0  0  0  0  0  0  0  0  0  0  0  0
    6.8671    0.3435    0.0000 C   0  0  0  0  0  0  0  0  0  0  0  0
    6.0010   -0.1565    0.0000 C   0  0  0  0  0  0  0  0  0  0  0  0
    4.2690   -1.1565    0.0000 C   0  0  0  0  0  0  0  0  0  0  0  0
    8.9900    1.0987    0.0000 C   0  0  0  0  0  0  0  0  0  0  0  0
    3.4030   -1.6565    0.0000 C   0  0  0  0  0  0  0  0  0  0  0  0
    4.2690   -0.1565    0.0000 C   0  0  0  0  0  0  0  0  0  0  0  0
    9.9685    1.3050    0.0000 C   0  0  0  0  0  0  0  0  0  0  0  0
    2.5369   -1.1565    0.0000 C   0  0  0  0  0  0  0  0  0  0  0  0
    3.4030    0.3435    0.0000 C   0  0  0  0  0  0  0  0  0  0  0  0
    3.4030   -2.6565    0.0000 C   0  0  0  0  0  0  0  0  0  0  0  0
    2.5369   -0.1565    0.0000 C   0  0  0  0  0  0  0  0  0  0  0  0
   10.2791    2.2555    0.0000 C   0  0  0  0  0  0  0  0  0  0  0  0
   11.2576    2.4617    0.0000 C   0  0  0  0  0  0  0  0  0  0  0  0
   11.5683    3.4122    0.0000 C   0  0  0  0  0  0  0  0  0  0  0  0
    2.5369   -4.1565    0.0000 C   0  0  0  0  0  0  0  0  0  0  0  0
    9.9220    3.9503    0.0000 C   0  0  0  0  0  0  0  0  0  0  0  0
   10.9005    4.1565    0.0000 C   0  0  0  0  0  0  0  0  0  0  0  0
    6.8671   -2.2765    0.0000 H   0  0  0  0  0  0  0  0  0  0  0  0
    6.8671    0.9635    0.0000 H   0  0  0  0  0  0  0  0  0  0  0  0
    5.4641    0.1535    0.0000 H   0  0  0  0  0  0  0  0  0  0  0  0
    8.8719   -2.0506    0.0000 H   0  0  0  0  0  0  0  0  0  0  0  0
    8.5759    1.5602    0.0000 H   0  0  0  0  0  0  0  0  0  0  0  0
    4.8059    0.1535    0.0000 H   0  0  0  0  0  0  0  0  0  0  0  0
   10.3825    0.8435    0.0000 H   0  0  0  0  0  0  0  0  0  0  0  0
    2.0000   -1.4665    0.0000 H   0  0  0  0  0  0  0  0  0  0  0  0
    3.4030    0.9635    0.0000 H   0  0  0  0  0  0  0  0  0  0  0  0
    2.0000    0.1535    0.0000 H   0  0  0  0  0  0  0  0  0  0  0  0
    2.0000   -2.8465    0.0000 H   0  0  0  0  0  0  0  0  0  0  0  0
   11.6717    2.0002    0.0000 H   0  0  0  0  0  0  0  0  0  0  0  0
   12.1750    3.5401    0.0000 H   0  0  0  0  0  0  0  0  0  0  0  0
    1.9169   -4.1565    0.0000 H   0  0  0  0  0  0  0  0  0  0  0  0
    2.5369   -4.7765    0.0000 H   0  0  0  0  0  0  0  0  0  0  0  0
    3.1569   -4.1565    0.0000 H   0  0  0  0  0  0  0  0  0  0  0  0
    9.5079    4.4118    0.0000 H   0  0  0  0  0  0  0  0  0  0  0  0
   11.0931    4.7458    0.0000 H   0  0  0  0  0  0  0  0  0  0  0  0
  1 11  1  0  0  0  0
  1 14  1  0  0  0  0
  2 21  2  0  0  0  0
  3  4  1  0  0  0  0
  3  8  1  0  0  0  0
  3 32  1  0  0  0  0
  4  9  2  0  0  0  0
  5 21  1  0  0  0  0
  5 26  1  0  0  0  0
  5 39  1  0  0  0  0
  6 23  1  0  0  0  0
  6 27  2  0  0  0  0
  7  8  2  0  0  0  0
  7  9  1  0  0  0  0
  7 12  1  0  0  0  0
  8 10  1  0  0  0  0
  9 15  1  0  0  0  0
 10 11  2  0  0  0  0
 10 29  1  0  0  0  0
 11 13  1  0  0  0  0
 12 13  2  0  0  0  0
 12 30  1  0  0  0  0
 13 31  1  0  0  0  0
 14 16  1  0  0  0  0
 14 17  2  0  0  0  0
 15 18  2  0  0  0  0
 15 33  1  0  0  0  0
 16 19  2  0  0  0  0
 16 21  1  0  0  0  0
 17 20  1  0  0  0  0
 17 34  1  0  0  0  0
 18 23  1  0  0  0  0
 18 35  1  0  0  0  0
 19 22  1  0  0  0  0
 19 36  1  0  0  0  0
 20 22  2  0  0  0  0
 20 37  1  0  0  0  0
 22 38  1  0  0  0  0
 23 24  2  0  0  0  0
 24 25  1  0  0  0  0
 24 40  1  0  0  0  0
 25 28  2  0  0  0  0
 25 41  1  0  0  0  0
 26 42  1  0  0  0  0
 26 43  1  0  0  0  0
 26 44  1  0  0  0  0
 27 28  1  0  0  0  0
 27 45  1  0  0  0  0
 28 46  1  0  0  0  0
M  END
> <PUBCHEM_COMPOUND_CID>
6450551

> <PUBCHEM_COMPOUND_CANONICALIZED>
1

> <PUBCHEM_CACTVS_COMPLEXITY>
557

> <PUBCHEM_CACTVS_HBOND_ACCEPTOR>
4

> <PUBCHEM_CACTVS_HBOND_DONOR>
2

> <PUBCHEM_CACTVS_ROTATABLE_BOND>
5

> <PUBCHEM_CACTVS_SUBSKEYS>
AAADceB7oABAAAAAAAAAAAAAAAAAAWAAAAA8YIAAAAAAAFgB/AAAHgQYAAAADAjB3gQ+wfLrEAiqAzV3VACShCA1CjAY+bk4ZNgIIPLg1dGEpQxgmgDoyYcYiICOEAAAACAGAAAgAAAAQAwAAAAAAAAAAA==

> <PUBCHEM_IUPAC_OPENEYE_NAME>
N-methyl-2-[[3-[(E)-2-(2-pyridyl)vinyl]-1H-indazol-6-yl]sulfanyl]benzamide

> <PUBCHEM_IUPAC_CAS_NAME>
N-methyl-2-[[3-[(E)-2-(2-pyridinyl)ethenyl]-1H-indazol-6-yl]thio]benzamide

> <PUBCHEM_IUPAC_NAME>
N-methyl-2-[[3-[(E)-2-pyridin-2-ylethenyl]-1H-indazol-6-yl]sulfanyl]benzamide

> <PUBCHEM_IUPAC_SYSTEMATIC_NAME>
N-methyl-2-[[3-[(E)-2-pyridin-2-ylethenyl]-1H-indazol-6-yl]sulfanyl]benzamide

> <PUBCHEM_IUPAC_TRADITIONAL_NAME>
N-methyl-2-[[3-[(E)-2-(2-pyridyl)vinyl]-1H-indazol-6-yl]thio]benzamide

> <PUBCHEM_IUPAC_INCHI>
InChI=1S/C22H18N4OS/c1-23-22(27)18-7-2-3-8-21(18)28-16-10-11-17-19(25-26-20(17)14-16)12-9-15-6-4-5-13-24-15/h2-14H,1H3,(H,23,27)(H,25,26)/b12-9+

> <PUBCHEM_IUPAC_INCHIKEY>
RITAVMQDGBJQJZ-FMIVXFBMSA-N

> <PUBCHEM_XLOGP3_AA>
4.2

> <PUBCHEM_EXACT_MASS>
386.12

> <PUBCHEM_MOLECULAR_FORMULA>
C22H18N4OS

> <PUBCHEM_MOLECULAR_WEIGHT>
386.473

> <PUBCHEM_OPENEYE_CAN_SMILES>
CNC(=O)C1=CC=CC=C1SC2=CC3=C(C=C2)C(=NN3)C=CC4=CC=CC=N4

> <PUBCHEM_OPENEYE_ISO_SMILES>
CNC(=O)C1=CC=CC=C1SC2=CC3=C(C=C2)C(=NN3)/C=C/C4=CC=CC=N4

> <PUBCHEM_CACTVS_TPSA>
96

> <PUBCHEM_MONOISOTOPIC_WEIGHT>
386.12

> <PUBCHEM_TOTAL_CHARGE>
0

> <PUBCHEM_HEAVY_ATOM_COUNT>
28

> <PUBCHEM_ATOM_DEF_STEREO_COUNT>
0

> <PUBCHEM_ATOM_UDEF_STEREO_COUNT>
0

> <PUBCHEM_BOND_DEF_STEREO_COUNT>
1

> <PUBCHEM_BOND_UDEF_STEREO_COUNT>
0

> <PUBCHEM_ISOTOPIC_ATOM_COUNT>
0

> <PUBCHEM_COMPONENT_COUNT>
1

> <PUBCHEM_CACTVS_TAUTO_COUNT>
8

> <PUBCHEM_COORDINATE_TYPE>
1
5
255

> <PUBCHEM_BONDANNOTATIONS>
10  11  8
11  13  8
12  13  8
14  16  8
14  17  8
16  19  8
17  20  8
19  22  8
20  22  8
23  24  8
24  25  8
25  28  8
27  28  8
3  4  8
3  8  8
4  9  8
6  23  8
6  27  8
7  12  8
7  8  8
7  9  8
8  10  8

$$$$
6918852
  -OEChem-11021605012D

 51 53  0     0  0  0  0  0  0999 V2000
    2.8660   -4.0670    0.0000 S   0  0  0  0  0  0  0  0  0  0  0  0
    8.0622    0.9330    0.0000 F   0  0  0  0  0  0  0  0  0  0  0  0
    9.7942    1.9330    0.0000 F   0  0  0  0  0  0  0  0  0  0  0  0
    3.3660   -4.9330    0.0000 O   0  0  0  0  0  0  0  0  0  0  0  0
    2.3660   -3.2010    0.0000 O   0  0  0  0  0  0  0  0  0  0  0  0
    5.4641    2.4330    0.0000 O   0  0  0  0  0  0  0  0  0  0  0  0
    6.3301    3.9330    0.0000 O   0  0  0  0  0  0  0  0  0  0  0  0
    3.7320   -3.5670    0.0000 N   0  0  0  0  0  0  0  0  0  0  0  0
    6.3301   -2.0670    0.0000 N   0  0  0  0  0  0  0  0  0  0  0  0
    5.4641   -0.5670    0.0000 N   0  0  0  0  0  0  0  0  0  0  0  0
    7.1962   -0.5670    0.0000 N   0  0  0  0  0  0  0  0  0  0  0  0
    4.5981    0.9330    0.0000 N   0  0  0  0  0  0  0  0  0  0  0  0
    5.4641   -2.5670    0.0000 C   0  0  0  0  0  0  0  0  0  0  0  0
    5.4641   -3.5670    0.0000 C   0  0  0  0  0  0  0  0  0  0  0  0
    4.5981   -2.0670    0.0000 C   0  0  0  0  0  0  0  0  0  0  0  0
    4.5981   -4.0670    0.0000 C   0  0  0  0  0  0  0  0  0  0  0  0
    3.7320   -2.5670    0.0000 C   0  0  0  0  0  0  0  0  0  0  0  0
    2.0000   -4.5670    0.0000 C   0  0  0  0  0  0  0  0  0  0  0  0
    6.3301   -1.0670    0.0000 C   0  0  0  0  0  0  0  0  0  0  0  0
    5.4641    0.4330    0.0000 C   0  0  0  0  0  0  0  0  0  0  0  0
    6.3301    0.9330    0.0000 C   0  0  0  0  0  0  0  0  0  0  0  0
    7.1962    0.4330    0.0000 C   0  0  0  0  0  0  0  0  0  0  0  0
    6.3301    1.9330    0.0000 C   0  0  0  0  0  0  0  0  0  0  0  0
    7.1962    2.4330    0.0000 C   0  0  0  0  0  0  0  0  0  0  0  0
    7.1962    3.4330    0.0000 C   0  0  0  0  0  0  0  0  0  0  0  0
    8.0622    1.9330    0.0000 C   0  0  0  0  0  0  0  0  0  0  0  0
    8.0622    3.9330    0.0000 C   0  0  0  0  0  0  0  0  0  0  0  0
    8.9282    2.4330    0.0000 C   0  0  0  0  0  0  0  0  0  0  0  0
    8.9282    3.4330    0.0000 C   0  0  0  0  0  0  0  0  0  0  0  0
    6.3301    4.9330    0.0000 C   0  0  0  0  0  0  0  0  0  0  0  0
    5.4641   -1.9470    0.0000 H   0  0  0  0  0  0  0  0  0  0  0  0
    5.6762   -4.1496    0.0000 H   0  0  0  0  0  0  0  0  0  0  0  0
    6.0747   -3.4593    0.0000 H   0  0  0  0  0  0  0  0  0  0  0  0
    4.9966   -1.5920    0.0000 H   0  0  0  0  0  0  0  0  0  0  0  0
    4.1996   -1.5920    0.0000 H   0  0  0  0  0  0  0  0  0  0  0  0
    4.1996   -4.5419    0.0000 H   0  0  0  0  0  0  0  0  0  0  0  0
    4.9966   -4.5419    0.0000 H   0  0  0  0  0  0  0  0  0  0  0  0
    3.5200   -1.9844    0.0000 H   0  0  0  0  0  0  0  0  0  0  0  0
    3.1215   -2.6747    0.0000 H   0  0  0  0  0  0  0  0  0  0  0  0
    6.8671   -2.3770    0.0000 H   0  0  0  0  0  0  0  0  0  0  0  0
    1.6900   -4.0300    0.0000 H   0  0  0  0  0  0  0  0  0  0  0  0
    1.4631   -4.8770    0.0000 H   0  0  0  0  0  0  0  0  0  0  0  0
    2.3100   -5.1039    0.0000 H   0  0  0  0  0  0  0  0  0  0  0  0
    7.7331    0.7430    0.0000 H   0  0  0  0  0  0  0  0  0  0  0  0
    4.0611    0.6230    0.0000 H   0  0  0  0  0  0  0  0  0  0  0  0
    4.5981    1.5530    0.0000 H   0  0  0  0  0  0  0  0  0  0  0  0
    8.0622    4.5530    0.0000 H   0  0  0  0  0  0  0  0  0  0  0  0
    9.4651    3.7430    0.0000 H   0  0  0  0  0  0  0  0  0  0  0  0
    6.9501    4.9330    0.0000 H   0  0  0  0  0  0  0  0  0  0  0  0
    6.3301    5.5530    0.0000 H   0  0  0  0  0  0  0  0  0  0  0  0
    5.7101    4.9330    0.0000 H   0  0  0  0  0  0  0  0  0  0  0  0
  1  4  2  0  0  0  0
  1  5  2  0  0  0  0
  1  8  1  0  0  0  0
  1 18  1  0  0  0  0
  2 26  1  0  0  0  0
  3 28  1  0  0  0  0
  6 23  2  0  0  0  0
  7 25  1  0  0  0  0
  7 30  1  0  0  0  0
  8 16  1  0  0  0  0
  8 17  1  0  0  0  0
  9 13  1  0  0  0  0
  9 19  1  0  0  0  0
  9 40  1  0  0  0  0
 10 19  1  0  0  0  0
 10 20  2  0  0  0  0
 11 19  2  0  0  0  0
 11 22  1  0  0  0  0
 12 20  1  0  0  0  0
 12 45  1  0  0  0  0
 12 46  1  0  0  0  0
 13 14  1  0  0  0  0
 13 15  1  0  0  0  0
 13 31  1  0  0  0  0
 14 16  1  0  0  0  0
 14 32  1  0  0  0  0
 14 33  1  0  0  0  0
 15 17  1  0  0  0  0
 15 34  1  0  0  0  0
 15 35  1  0  0  0  0
 16 36  1  0  0  0  0
 16 37  1  0  0  0  0
 17 38  1  0  0  0  0
 17 39  1  0  0  0  0
 18 41  1  0  0  0  0
 18 42  1  0  0  0  0
 18 43  1  0  0  0  0
 20 21  1  0  0  0  0
 21 22  2  0  0  0  0
 21 23  1  0  0  0  0
 22 44  1  0  0  0  0
 23 24  1  0  0  0  0
 24 25  2  0  0  0  0
 24 26  1  0  0  0  0
 25 27  1  0  0  0  0
 26 28  2  0  0  0  0
 27 29  2  0  0  0  0
 27 47  1  0  0  0  0
 28 29  1  0  0  0  0
 29 48  1  0  0  0  0
 30 49  1  0  0  0  0
 30 50  1  0  0  0  0
 30 51  1  0  0  0  0
M  END
> <PUBCHEM_COMPOUND_CID>
6918852

> <PUBCHEM_COMPOUND_CANONICALIZED>
1

> <PUBCHEM_CACTVS_COMPLEXITY>
701

> <PUBCHEM_CACTVS_HBOND_ACCEPTOR>
11

> <PUBCHEM_CACTVS_HBOND_DONOR>
2

> <PUBCHEM_CACTVS_ROTATABLE_BOND>
6

> <PUBCHEM_CACTVS_SUBSKEYS>
AAADceB7uYBAAAAAAAAAAAAAAAAAAAAAAAA8WIAAAAAAAAABwAAAHwQQQAAADCzBmg6/tpbIFAKoArJ3ZHCCiCk1IKAJ2KEuTNiMLr7E/FqENegs8BPI6eeY2OKOAAAAAAAIAAAAAAAAABAAAAAAAAAAAA==

> <PUBCHEM_IUPAC_OPENEYE_NAME>
[4-amino-2-[(1-methylsulfonyl-4-piperidyl)amino]pyrimidin-5-yl]-(2,3-difluoro-6-methoxy-phenyl)methanone

> <PUBCHEM_IUPAC_CAS_NAME>
[4-amino-2-[(1-methylsulfonyl-4-piperidinyl)amino]-5-pyrimidinyl]-(2,3-difluoro-6-methoxyphenyl)methanone

> <PUBCHEM_IUPAC_NAME>
[4-amino-2-[(1-methylsulfonylpiperidin-4-yl)amino]pyrimidin-5-yl]-(2,3-difluoro-6-methoxyphenyl)methanone

> <PUBCHEM_IUPAC_SYSTEMATIC_NAME>
[4-azanyl-2-[(1-methylsulfonylpiperidin-4-yl)amino]pyrimidin-5-yl]-[2,3-bis(fluoranyl)-6-methoxy-phenyl]methanone

> <PUBCHEM_IUPAC_TRADITIONAL_NAME>
[4-amino-2-[(1-mesyl-4-piperidyl)amino]pyrimidin-5-yl]-(2,3-difluoro-6-methoxy-phenyl)methanone

> <PUBCHEM_IUPAC_INCHI>
InChI=1S/C18H21F2N5O4S/c1-29-13-4-3-12(19)15(20)14(13)16(26)11-9-22-18(24-17(11)21)23-10-5-7-25(8-6-10)30(2,27)28/h3-4,9-10H,5-8H2,1-2H3,(H3,21,22,23,24)

> <PUBCHEM_IUPAC_INCHIKEY>
JRNJNYBQQYBCLE-UHFFFAOYSA-N

> <PUBCHEM_XLOGP3_AA>
2.1

> <PUBCHEM_EXACT_MASS>
441.128

> <PUBCHEM_MOLECULAR_FORMULA>
C18H21F2N5O4S

> <PUBCHEM_MOLECULAR_WEIGHT>
441.454

> <PUBCHEM_OPENEYE_CAN_SMILES>
COC1=C(C(=C(C=C1)F)F)C(=O)C2=CN=C(N=C2N)NC3CCN(CC3)S(=O)(=O)C

> <PUBCHEM_OPENEYE_ISO_SMILES>
COC1=C(C(=C(C=C1)F)F)C(=O)C2=CN=C(N=C2N)NC3CCN(CC3)S(=O)(=O)C

> <PUBCHEM_CACTVS_TPSA>
136

> <PUBCHEM_MONOISOTOPIC_WEIGHT>
441.128

> <PUBCHEM_TOTAL_CHARGE>
0

> <PUBCHEM_HEAVY_ATOM_COUNT>
30

> <PUBCHEM_ATOM_DEF_STEREO_COUNT>
0

> <PUBCHEM_ATOM_UDEF_STEREO_COUNT>
0

> <PUBCHEM_BOND_DEF_STEREO_COUNT>
0

> <PUBCHEM_BOND_UDEF_STEREO_COUNT>
0

> <PUBCHEM_ISOTOPIC_ATOM_COUNT>
0

> <PUBCHEM_COMPONENT_COUNT>
1

> <PUBCHEM_CACTVS_TAUTO_COUNT>
12

> <PUBCHEM_COORDINATE_TYPE>
1
5
255

> <PUBCHEM_BONDANNOTATIONS>
10  19  8
10  20  8
11  19  8
11  22  8
20  21  8
21  22  8
24  25  8
24  26  8
25  27  8
26  28  8
27  29  8
28  29  8

$$$$
10127622
  -OEChem-11021605012D

 42 44  0     0  0  0  0  0  0999 V2000
    4.2690    5.1550    0.0000 Br  0  0  0  0  0  0  0  0  0  0  0  0
    2.5369    2.1550    0.0000 Cl  0  0  0  0  0  0  0  0  0  0  0  0
    6.0010    2.1550    0.0000 F   0  0  0  0  0  0  0  0  0  0  0  0
    3.4030   -2.3450    0.0000 O   0  0  0  0  0  0  0  0  0  0  0  0
    3.4030   -0.3450    0.0000 O   0  0  0  0  0  0  0  0  0  0  0  0
    2.5369   -4.8450    0.0000 O   0  0  0  0  0  0  0  0  0  0  0  0
    7.8133   -0.6497    0.0000 N   0  0  0  0  0  0  0  0  0  0  0  0
    4.2690    1.1550    0.0000 N   0  0  0  0  0  0  0  0  0  0  0  0
    7.8133    0.9597    0.0000 N   0  0  0  0  0  0  0  0  0  0  0  0
    4.2690   -1.8450    0.0000 N   0  0  0  0  0  0  0  0  0  0  0  0
    6.8671   -0.3450    0.0000 C   0  0  0  0  0  0  0  0  0  0  0  0
    6.8671    0.6550    0.0000 C   0  0  0  0  0  0  0  0  0  0  0  0
    5.1350    0.6550    0.0000 C   0  0  0  0  0  0  0  0  0  0  0  0
    5.1350   -0.3450    0.0000 C   0  0  0  0  0  0  0  0  0  0  0  0
    6.0010   -0.8450    0.0000 C   0  0  0  0  0  0  0  0  0  0  0  0
    6.0010    1.1550    0.0000 C   0  0  0  0  0  0  0  0  0  0  0  0
    8.3969    0.1550    0.0000 C   0  0  0  0  0  0  0  0  0  0  0  0
    8.1240   -1.6002    0.0000 C   0  0  0  0  0  0  0  0  0  0  0  0
    4.2690   -0.8450    0.0000 C   0  0  0  0  0  0  0  0  0  0  0  0
    4.2690    2.1550    0.0000 C   0  0  0  0  0  0  0  0  0  0  0  0
    3.4030    2.6550    0.0000 C   0  0  0  0  0  0  0  0  0  0  0  0
    5.1350    2.6550    0.0000 C   0  0  0  0  0  0  0  0  0  0  0  0
    3.4030    3.6550    0.0000 C   0  0  0  0  0  0  0  0  0  0  0  0
    5.1350    3.6550    0.0000 C   0  0  0  0  0  0  0  0  0  0  0  0
    4.2690    4.1550    0.0000 C   0  0  0  0  0  0  0  0  0  0  0  0
    3.4030   -3.3450    0.0000 C   0  0  0  0  0  0  0  0  0  0  0  0
    2.5369   -3.8450    0.0000 C   0  0  0  0  0  0  0  0  0  0  0  0
    6.0010   -1.4650    0.0000 H   0  0  0  0  0  0  0  0  0  0  0  0
    3.7320    0.8450    0.0000 H   0  0  0  0  0  0  0  0  0  0  0  0
    9.0169    0.1550    0.0000 H   0  0  0  0  0  0  0  0  0  0  0  0
    7.5346   -1.7929    0.0000 H   0  0  0  0  0  0  0  0  0  0  0  0
    8.3166   -2.1896    0.0000 H   0  0  0  0  0  0  0  0  0  0  0  0
    8.7133   -1.4076    0.0000 H   0  0  0  0  0  0  0  0  0  0  0  0
    5.6720    2.3450    0.0000 H   0  0  0  0  0  0  0  0  0  0  0  0
    4.8059   -2.1550    0.0000 H   0  0  0  0  0  0  0  0  0  0  0  0
    2.8660    3.9650    0.0000 H   0  0  0  0  0  0  0  0  0  0  0  0
    5.6720    3.9650    0.0000 H   0  0  0  0  0  0  0  0  0  0  0  0
    3.6150   -3.9276    0.0000 H   0  0  0  0  0  0  0  0  0  0  0  0
    4.0135   -3.2373    0.0000 H   0  0  0  0  0  0  0  0  0  0  0  0
    2.3249   -3.2624    0.0000 H   0  0  0  0  0  0  0  0  0  0  0  0
    1.9264   -3.9527    0.0000 H   0  0  0  0  0  0  0  0  0  0  0  0
    2.0000   -5.1550    0.0000 H   0  0  0  0  0  0  0  0  0  0  0  0
  1 25  1  0  0  0  0
  2 21  1  0  0  0  0
  3 16  1  0  0  0  0
  4 10  1  0  0  0  0
  4 26  1  0  0  0  0
  5 19  2  0  0  0  0
  6 27  1  0  0  0  0
  6 42  1  0  0  0  0
  7 11  1  0  0  0  0
  7 17  1  0  0  0  0
  7 18  1  0  0  0  0
  8 13  1  0  0  0  0
  8 20  1  0  0  0  0
  8 29  1  0  0  0  0
  9 12  1  0  0  0  0
  9 17  2  0  0  0  0
 10 19  1  0  0  0  0
 10 35  1  0  0  0  0
 11 12  2  0  0  0  0
 11 15  1  0  0  0  0
 12 16  1  0  0  0  0
 13 14  1  0  0  0  0
 13 16  2  0  0  0  0
 14 15  2  0  0  0  0
 14 19  1  0  0  0  0
 15 28  1  0  0  0  0
 17 30  1  0  0  0  0
 18 31  1  0  0  0  0
 18 32  1  0  0  0  0
 18 33  1  0  0  0  0
 20 21  2  0  0  0  0
 20 22  1  0  0  0  0
 21 23  1  0  0  0  0
 22 24  2  0  0  0  0
 22 34  1  0  0  0  0
 23 25  2  0  0  0  0
 23 36  1  0  0  0  0
 24 25  1  0  0  0  0
 24 37  1  0  0  0  0
 26 27  1  0  0  0  0
 26 38  1  0  0  0  0
 26 39  1  0  0  0  0
 27 40  1  0  0  0  0
 27 41  1  0  0  0  0
M  END
> <PUBCHEM_COMPOUND_CID>
10127622

> <PUBCHEM_COMPOUND_CANONICALIZED>
1

> <PUBCHEM_CACTVS_COMPLEXITY>
523

> <PUBCHEM_CACTVS_HBOND_ACCEPTOR>
6

> <PUBCHEM_CACTVS_HBOND_DONOR>
3

> <PUBCHEM_CACTVS_ROTATABLE_BOND>
6

> <PUBCHEM_CACTVS_SUBSKEYS>
AAADccB7sQAEEAAAAAAAAAAAAAAAAWAAAAAwYAAAAAAAAFgB9AAAHwJUCAABrAqhni430LfcEgCoAyVzdACCgC01F6Qp2CE4dviJePrB39HUJYhokALJy/cciQCeCACgQARCADAQAUCACIQAYAAAAAAAAA==

> <PUBCHEM_IUPAC_OPENEYE_NAME>
6-(4-bromo-2-chloro-anilino)-7-fluoro-N-(2-hydroxyethoxy)-3-methyl-benzimidazole-5-carboxamide

> <PUBCHEM_IUPAC_CAS_NAME>
6-(4-bromo-2-chloroanilino)-7-fluoro-N-(2-hydroxyethoxy)-3-methyl-5-benzimidazolecarboxamide

> <PUBCHEM_IUPAC_NAME>
6-(4-bromo-2-chloroanilino)-7-fluoro-N-(2-hydroxyethoxy)-3-methylbenzimidazole-5-carboxamide

> <PUBCHEM_IUPAC_SYSTEMATIC_NAME>
6-[(4-bromanyl-2-chloranyl-phenyl)amino]-7-fluoranyl-N-(2-hydroxyethyloxy)-3-methyl-benzimidazole-5-carboxamide

> <PUBCHEM_IUPAC_TRADITIONAL_NAME>
6-(4-bromo-2-chloro-anilino)-7-fluoro-N-(2-hydroxyethoxy)-3-methyl-benzimidazole-5-carboxamide

> <PUBCHEM_IUPAC_INCHI>
InChI=1S/C17H15BrClFN4O3/c1-24-8-21-16-13(24)7-10(17(26)23-27-5-4-25)15(14(16)20)22-12-3-2-9(18)6-11(12)19/h2-3,6-8,22,25H,4-5H2,1H3,(H,23,26)

> <PUBCHEM_IUPAC_INCHIKEY>
CYOHGALHFOKKQC-UHFFFAOYSA-N

> <PUBCHEM_XLOGP3_AA>
3.6

> <PUBCHEM_EXACT_MASS>
456

> <PUBCHEM_MOLECULAR_FORMULA>
C17H15BrClFN4O3

> <PUBCHEM_MOLECULAR_WEIGHT>
457.684

> <PUBCHEM_OPENEYE_CAN_SMILES>
CN1C=NC2=C1C=C(C(=C2F)NC3=C(C=C(C=C3)Br)Cl)C(=O)NOCCO

> <PUBCHEM_OPENEYE_ISO_SMILES>
CN1C=NC2=C1C=C(C(=C2F)NC3=C(C=C(C=C3)Br)Cl)C(=O)NOCCO

> <PUBCHEM_CACTVS_TPSA>
88.4

> <PUBCHEM_MONOISOTOPIC_WEIGHT>
456

> <PUBCHEM_TOTAL_CHARGE>
0

> <PUBCHEM_HEAVY_ATOM_COUNT>
27

> <PUBCHEM_ATOM_DEF_STEREO_COUNT>
0

> <PUBCHEM_ATOM_UDEF_STEREO_COUNT>
0

> <PUBCHEM_BOND_DEF_STEREO_COUNT>
0

> <PUBCHEM_BOND_UDEF_STEREO_COUNT>
0

> <PUBCHEM_ISOTOPIC_ATOM_COUNT>
0

> <PUBCHEM_COMPONENT_COUNT>
1

> <PUBCHEM_CACTVS_TAUTO_COUNT>
5

> <PUBCHEM_COORDINATE_TYPE>
1
5
255

> <PUBCHEM_BONDANNOTATIONS>
11  12  8
11  15  8
12  16  8
13  14  8
13  16  8
14  15  8
20  21  8
20  22  8
21  23  8
22  24  8
23  25  8
24  25  8
7  11  8
7  17  8
9  12  8
9  17  8

$$$$
16038120
  -OEChem-11021605012D

 82 86  0     0  0  0  0  0  0999 V2000
    8.0622    6.0000    0.0000 Cl  0  0  0  0  0  0  0  0  0  0  0  0
    9.7942    3.0000    0.0000 S   0  0  0  0  0  0  0  0  0  0  0  0
    2.8660    3.0000    0.0000 O   0  0  0  0  0  0  0  0  0  0  0  0
   10.7942    3.0000    0.0000 O   0  0  0  0  0  0  0  0  0  0  0  0
    8.7942    3.0000    0.0000 O   0  0  0  0  0  0  0  0  0  0  0  0
    4.5981   -3.0000    0.0000 N   0  0  0  0  0  0  0  0  0  0  0  0
    4.5981    0.0000    0.0000 N   0  0  0  0  0  0  0  0  0  0  0  0
    4.5981   -5.0000    0.0000 N   0  0  0  0  0  0  0  0  0  0  0  0
    4.5981    4.0000    0.0000 N   0  0  0  0  0  0  0  0  0  0  0  0
    6.3301    4.0000    0.0000 N   0  0  0  0  0  0  0  0  0  0  0  0
    5.4641    5.5000    0.0000 N   0  0  0  0  0  0  0  0  0  0  0  0
    8.0622    4.0000    0.0000 N   0  0  0  0  0  0  0  0  0  0  0  0
    4.5981   -2.0000    0.0000 C   0  0  0  0  0  0  0  0  0  0  0  0
    5.4641   -1.5000    0.0000 C   0  0  0  0  0  0  0  0  0  0  0  0
    3.7320   -1.5000    0.0000 C   0  0  0  0  0  0  0  0  0  0  0  0
    3.7320   -0.5000    0.0000 C   0  0  0  0  0  0  0  0  0  0  0  0
    5.4641   -0.5000    0.0000 C   0  0  0  0  0  0  0  0  0  0  0  0
    5.4641   -3.5000    0.0000 C   0  0  0  0  0  0  0  0  0  0  0  0
    3.7320   -3.5000    0.0000 C   0  0  0  0  0  0  0  0  0  0  0  0
    5.4641   -4.5000    0.0000 C   0  0  0  0  0  0  0  0  0  0  0  0
    3.7320   -4.5000    0.0000 C   0  0  0  0  0  0  0  0  0  0  0  0
    4.5981    1.0000    0.0000 C   0  0  0  0  0  0  0  0  0  0  0  0
    4.5981   -6.0000    0.0000 C   0  0  0  0  0  0  0  0  0  0  0  0
    3.7320    1.5000    0.0000 C   0  0  0  0  0  0  0  0  0  0  0  0
    5.4641    1.5000    0.0000 C   0  0  0  0  0  0  0  0  0  0  0  0
    3.7320    2.5000    0.0000 C   0  0  0  0  0  0  0  0  0  0  0  0
    5.4641    2.5000    0.0000 C   0  0  0  0  0  0  0  0  0  0  0  0
    4.5981    3.0000    0.0000 C   0  0  0  0  0  0  0  0  0  0  0  0
    5.4641    4.5000    0.0000 C   0  0  0  0  0  0  0  0  0  0  0  0
    2.0000    2.5000    0.0000 C   0  0  0  0  0  0  0  0  0  0  0  0
    9.7942    2.0000    0.0000 C   0  0  0  0  0  0  0  0  0  0  0  0
    9.7942    4.0000    0.0000 C   0  0  0  0  0  0  0  0  0  0  0  0
    8.9282    4.5000    0.0000 C   0  0  0  0  0  0  0  0  0  0  0  0
   10.6603    1.5000    0.0000 C   0  0  0  0  0  0  0  0  0  0  0  0
    8.9282    1.5000    0.0000 C   0  0  0  0  0  0  0  0  0  0  0  0
    7.1962    4.5000    0.0000 C   0  0  0  0  0  0  0  0  0  0  0  0
   10.6603    4.5000    0.0000 C   0  0  0  0  0  0  0  0  0  0  0  0
    8.9282    5.5000    0.0000 C   0  0  0  0  0  0  0  0  0  0  0  0
    7.1962    5.5000    0.0000 C   0  0  0  0  0  0  0  0  0  0  0  0
    6.3301    6.0000    0.0000 C   0  0  0  0  0  0  0  0  0  0  0  0
   10.6603    5.5000    0.0000 C   0  0  0  0  0  0  0  0  0  0  0  0
    9.7942    6.0000    0.0000 C   0  0  0  0  0  0  0  0  0  0  0  0
    5.1350   -2.3100    0.0000 H   0  0  0  0  0  0  0  0  0  0  0  0
    5.6762   -2.0826    0.0000 H   0  0  0  0  0  0  0  0  0  0  0  0
    6.0747   -1.3923    0.0000 H   0  0  0  0  0  0  0  0  0  0  0  0
    3.1215   -1.3923    0.0000 H   0  0  0  0  0  0  0  0  0  0  0  0
    3.5200   -2.0826    0.0000 H   0  0  0  0  0  0  0  0  0  0  0  0
    6.0747   -0.6077    0.0000 H   0  0  0  0  0  0  0  0  0  0  0  0
    5.6762    0.0826    0.0000 H   0  0  0  0  0  0  0  0  0  0  0  0
    3.5200    0.0826    0.0000 H   0  0  0  0  0  0  0  0  0  0  0  0
    3.1215   -0.6077    0.0000 H   0  0  0  0  0  0  0  0  0  0  0  0
    3.5200   -2.9174    0.0000 H   0  0  0  0  0  0  0  0  0  0  0  0
    3.1215   -3.6077    0.0000 H   0  0  0  0  0  0  0  0  0  0  0  0
    6.0747   -3.6077    0.0000 H   0  0  0  0  0  0  0  0  0  0  0  0
    5.6762   -2.9174    0.0000 H   0  0  0  0  0  0  0  0  0  0  0  0
    3.1215   -4.3923    0.0000 H   0  0  0  0  0  0  0  0  0  0  0  0
    3.5200   -5.0826    0.0000 H   0  0  0  0  0  0  0  0  0  0  0  0
    5.6762   -5.0826    0.0000 H   0  0  0  0  0  0  0  0  0  0  0  0
    6.0747   -4.3923    0.0000 H   0  0  0  0  0  0  0  0  0  0  0  0
    3.9781   -6.0000    0.0000 H   0  0  0  0  0  0  0  0  0  0  0  0
    4.5981   -6.6200    0.0000 H   0  0  0  0  0  0  0  0  0  0  0  0
    5.2181   -6.0000    0.0000 H   0  0  0  0  0  0  0  0  0  0  0  0
    3.1951    1.1900    0.0000 H   0  0  0  0  0  0  0  0  0  0  0  0
    6.0010    1.1900    0.0000 H   0  0  0  0  0  0  0  0  0  0  0  0
    6.0010    2.8100    0.0000 H   0  0  0  0  0  0  0  0  0  0  0  0
    4.0611    4.3100    0.0000 H   0  0  0  0  0  0  0  0  0  0  0  0
    1.6900    3.0369    0.0000 H   0  0  0  0  0  0  0  0  0  0  0  0
    1.4631    2.1900    0.0000 H   0  0  0  0  0  0  0  0  0  0  0  0
    2.3100    1.9631    0.0000 H   0  0  0  0  0  0  0  0  0  0  0  0
    9.2573    2.3100    0.0000 H   0  0  0  0  0  0  0  0  0  0  0  0
   10.3503    0.9631    0.0000 H   0  0  0  0  0  0  0  0  0  0  0  0
   11.1972    1.1900    0.0000 H   0  0  0  0  0  0  0  0  0  0  0  0
   10.9703    2.0369    0.0000 H   0  0  0  0  0  0  0  0  0  0  0  0
    8.6182    2.0369    0.0000 H   0  0  0  0  0  0  0  0  0  0  0  0
    8.3913    1.1900    0.0000 H   0  0  0  0  0  0  0  0  0  0  0  0
    9.2382    0.9631    0.0000 H   0  0  0  0  0  0  0  0  0  0  0  0
    8.0622    3.3800    0.0000 H   0  0  0  0  0  0  0  0  0  0  0  0
   11.1972    4.1900    0.0000 H   0  0  0  0  0  0  0  0  0  0  0  0
    8.3913    5.8100    0.0000 H   0  0  0  0  0  0  0  0  0  0  0  0
   11.1972    5.8100    0.0000 H   0  0  0  0  0  0  0  0  0  0  0  0
    6.3301    6.6200    0.0000 H   0  0  0  0  0  0  0  0  0  0  0  0
    9.7942    6.6200    0.0000 H   0  0  0  0  0  0  0  0  0  0  0  0
  1 39  1  0  0  0  0
  2  4  2  0  0  0  0
  2  5  2  0  0  0  0
  2 31  1  0  0  0  0
  2 32  1  0  0  0  0
  3 26  1  0  0  0  0
  3 30  1  0  0  0  0
  6 13  1  0  0  0  0
  6 18  1  0  0  0  0
  6 19  1  0  0  0  0
  7 16  1  0  0  0  0
  7 17  1  0  0  0  0
  7 22  1  0  0  0  0
  8 20  1  0  0  0  0
  8 21  1  0  0  0  0
  8 23  1  0  0  0  0
  9 28  1  0  0  0  0
  9 29  1  0  0  0  0
  9 66  1  0  0  0  0
 10 29  1  0  0  0  0
 10 36  2  0  0  0  0
 11 29  2  0  0  0  0
 11 40  1  0  0  0  0
 12 33  1  0  0  0  0
 12 36  1  0  0  0  0
 12 77  1  0  0  0  0
 13 14  1  0  0  0  0
 13 15  1  0  0  0  0
 13 43  1  0  0  0  0
 14 17  1  0  0  0  0
 14 44  1  0  0  0  0
 14 45  1  0  0  0  0
 15 16  1  0  0  0  0
 15 46  1  0  0  0  0
 15 47  1  0  0  0  0
 16 50  1  0  0  0  0
 16 51  1  0  0  0  0
 17 48  1  0  0  0  0
 17 49  1  0  0  0  0
 18 20  1  0  0  0  0
 18 54  1  0  0  0  0
 18 55  1  0  0  0  0
 19 21  1  0  0  0  0
 19 52  1  0  0  0  0
 19 53  1  0  0  0  0
 20 58  1  0  0  0  0
 20 59  1  0  0  0  0
 21 56  1  0  0  0  0
 21 57  1  0  0  0  0
 22 24  2  0  0  0  0
 22 25  1  0  0  0  0
 23 60  1  0  0  0  0
 23 61  1  0  0  0  0
 23 62  1  0  0  0  0
 24 26  1  0  0  0  0
 24 63  1  0  0  0  0
 25 27  2  0  0  0  0
 25 64  1  0  0  0  0
 26 28  2  0  0  0  0
 27 28  1  0  0  0  0
 27 65  1  0  0  0  0
 30 67  1  0  0  0  0
 30 68  1  0  0  0  0
 30 69  1  0  0  0  0
 31 34  1  0  0  0  0
 31 35  1  0  0  0  0
 31 70  1  0  0  0  0
 32 33  1  0  0  0  0
 32 37  2  0  0  0  0
 33 38  2  0  0  0  0
 34 71  1  0  0  0  0
 34 72  1  0  0  0  0
 34 73  1  0  0  0  0
 35 74  1  0  0  0  0
 35 75  1  0  0  0  0
 35 76  1  0  0  0  0
 36 39  1  0  0  0  0
 37 41  1  0  0  0  0
 37 78  1  0  0  0  0
 38 42  1  0  0  0  0
 38 79  1  0  0  0  0
 39 40  2  0  0  0  0
 40 81  1  0  0  0  0
 41 42  2  0  0  0  0
 41 80  1  0  0  0  0
 42 82  1  0  0  0  0
M  END
> <PUBCHEM_COMPOUND_CID>
16038120

> <PUBCHEM_COMPOUND_CANONICALIZED>
1

> <PUBCHEM_CACTVS_COMPLEXITY>
940

> <PUBCHEM_CACTVS_HBOND_ACCEPTOR>
10

> <PUBCHEM_CACTVS_HBOND_DONOR>
2

> <PUBCHEM_CACTVS_ROTATABLE_BOND>
9

> <PUBCHEM_CACTVS_SUBSKEYS>
AAADcfB7sABEAAAAAAAAAAAAAAAAAAAAAAA8eLECAAAAAAAB0AAAHgYQAAAACC7F0ia/95fIFAqgADZnZHDCiCkxK7AJ2DwvbJiObuLk+dvVNChu0Bv46CeQUAMAAACAAgAAEQAAAQAEAAAiAAAAAAAAAA==

> <PUBCHEM_IUPAC_OPENEYE_NAME>
5-chloro-N4-(2-isopropylsulfonylphenyl)-N2-[2-methoxy-4-[4-(4-methylpiperazin-1-yl)-1-piperidyl]phenyl]pyrimidine-2,4-diamine

> <PUBCHEM_IUPAC_CAS_NAME>
5-chloro-N2-[2-methoxy-4-[4-(4-methyl-1-piperazinyl)-1-piperidinyl]phenyl]-N4-(2-propan-2-ylsulfonylphenyl)pyrimidine-2,4-diamine

> <PUBCHEM_IUPAC_NAME>
5-chloro-2-N-[2-methoxy-4-[4-(4-methylpiperazin-1-yl)piperidin-1-yl]phenyl]-4-N-(2-propan-2-ylsulfonylphenyl)pyrimidine-2,4-diamine

> <PUBCHEM_IUPAC_SYSTEMATIC_NAME>
5-chloranyl-N2-[2-methoxy-4-[4-(4-methylpiperazin-1-yl)piperidin-1-yl]phenyl]-N4-(2-propan-2-ylsulfonylphenyl)pyrimidine-2,4-diamine

> <PUBCHEM_IUPAC_TRADITIONAL_NAME>
[5-chloro-4-(2-isopropylsulfonylanilino)pyrimidin-2-yl]-[2-methoxy-4-[4-(4-methylpiperazino)piperidino]phenyl]amine

> <PUBCHEM_IUPAC_INCHI>
InChI=1S/C30H40ClN7O3S/c1-21(2)42(39,40)28-8-6-5-7-26(28)33-29-24(31)20-32-30(35-29)34-25-10-9-23(19-27(25)41-4)37-13-11-22(12-14-37)38-17-15-36(3)16-18-38/h5-10,19-22H,11-18H2,1-4H3,(H2,32,33,34,35)

> <PUBCHEM_IUPAC_INCHIKEY>
QQWUGDVOUVUTOY-UHFFFAOYSA-N

> <PUBCHEM_XLOGP3_AA>
5.7

> <PUBCHEM_EXACT_MASS>
613.26

> <PUBCHEM_MOLECULAR_FORMULA>
C30H40ClN7O3S

> <PUBCHEM_MOLECULAR_WEIGHT>
614.206

> <PUBCHEM_OPENEYE_CAN_SMILES>
CC(C)S(=O)(=O)C1=CC=CC=C1NC2=NC(=NC=C2Cl)NC3=C(C=C(C=C3)N4CCC(CC4)N5CCN(CC5)C)OC

> <PUBCHEM_OPENEYE_ISO_SMILES>
CC(C)S(=O)(=O)C1=CC=CC=C1NC2=NC(=NC=C2Cl)NC3=C(C=C(C=C3)N4CCC(CC4)N5CCN(CC5)C)OC

> <PUBCHEM_CACTVS_TPSA>
111

> <PUBCHEM_MONOISOTOPIC_WEIGHT>
613.26

> <PUBCHEM_TOTAL_CHARGE>
0

> <PUBCHEM_HEAVY_ATOM_COUNT>
42

> <PUBCHEM_ATOM_DEF_STEREO_COUNT>
0

> <PUBCHEM_ATOM_UDEF_STEREO_COUNT>
0

> <PUBCHEM_BOND_DEF_STEREO_COUNT>
0

> <PUBCHEM_BOND_UDEF_STEREO_COUNT>
0

> <PUBCHEM_ISOTOPIC_ATOM_COUNT>
0

> <PUBCHEM_COMPONENT_COUNT>
1

> <PUBCHEM_CACTVS_TAUTO_COUNT>
9

> <PUBCHEM_COORDINATE_TYPE>
1
5
255

> <PUBCHEM_BONDANNOTATIONS>
10  29  8
10  36  8
11  29  8
11  40  8
22  24  8
22  25  8
24  26  8
25  27  8
26  28  8
27  28  8
32  33  8
32  37  8
33  38  8
36  39  8
37  41  8
38  42  8
39  40  8
41  42  8

$$$$
24779724
  -OEChem-11021605012D

 39 43  0     0  0  0  0  0  0999 V2000
    7.1370    0.9357    0.0000 S   0  0  0  0  0  0  0  0  0  0  0  0
    5.3632    1.0306    0.0000 N   0  0  0  0  0  0  0  0  0  0  0  0
    5.0525    0.0801    0.0000 N   0  0  0  0  0  0  0  0  0  0  0  0
    2.8100   -2.3840    0.0000 N   0  0  0  0  0  0  0  0  0  0  0  0
    5.1961    2.6337    0.0000 N   0  0  0  0  0  0  0  0  0  0  0  0
    6.1679    2.4245    0.0000 N   0  0  0  0  0  0  0  0  0  0  0  0
    3.7606   -2.6947    0.0000 N   0  0  0  0  0  0  0  0  0  0  0  0
   10.6290    2.9704    0.0000 N   0  0  0  0  0  0  0  0  0  0  0  0
    4.0740   -0.1261    0.0000 C   0  0  0  0  0  0  0  0  0  0  0  0
    3.7634   -1.0766    0.0000 C   0  0  0  0  0  0  0  0  0  0  0  0
    4.6953    1.7749    0.0000 C   0  0  0  0  0  0  0  0  0  0  0  0
    6.2710    1.4357    0.0000 C   0  0  0  0  0  0  0  0  0  0  0  0
    3.4062    0.6182    0.0000 C   0  0  0  0  0  0  0  0  0  0  0  0
    3.7168    1.5687    0.0000 C   0  0  0  0  0  0  0  0  0  0  0  0
    9.7351    1.4357    0.0000 C   0  0  0  0  0  0  0  0  0  0  0  0
    8.0030    1.4357    0.0000 C   0  0  0  0  0  0  0  0  0  0  0  0
    2.8118   -1.3840    0.0000 C   0  0  0  0  0  0  0  0  0  0  0  0
    9.7351    2.4357    0.0000 C   0  0  0  0  0  0  0  0  0  0  0  0
    8.8690    0.9357    0.0000 C   0  0  0  0  0  0  0  0  0  0  0  0
    4.3497   -1.8867    0.0000 C   0  0  0  0  0  0  0  0  0  0  0  0
    8.0030    2.4357    0.0000 C   0  0  0  0  0  0  0  0  0  0  0  0
    8.8690    2.9357    0.0000 C   0  0  0  0  0  0  0  0  0  0  0  0
   10.6290    0.9011    0.0000 C   0  0  0  0  0  0  0  0  0  0  0  0
    2.0000   -2.9704    0.0000 C   0  0  0  0  0  0  0  0  0  0  0  0
   11.5351    1.4149    0.0000 C   0  0  0  0  0  0  0  0  0  0  0  0
   11.5351    2.4566    0.0000 C   0  0  0  0  0  0  0  0  0  0  0  0
    2.7995    0.4903    0.0000 H   0  0  0  0  0  0  0  0  0  0  0  0
    3.3028    2.0302    0.0000 H   0  0  0  0  0  0  0  0  0  0  0  0
    2.3108   -1.0187    0.0000 H   0  0  0  0  0  0  0  0  0  0  0  0
    8.8690    0.3157    0.0000 H   0  0  0  0  0  0  0  0  0  0  0  0
    4.9697   -1.8878    0.0000 H   0  0  0  0  0  0  0  0  0  0  0  0
    7.4661    2.7457    0.0000 H   0  0  0  0  0  0  0  0  0  0  0  0
    8.8690    3.5557    0.0000 H   0  0  0  0  0  0  0  0  0  0  0  0
   10.6218    0.2811    0.0000 H   0  0  0  0  0  0  0  0  0  0  0  0
    1.6364   -2.4682    0.0000 H   0  0  0  0  0  0  0  0  0  0  0  0
    1.4978   -3.3340    0.0000 H   0  0  0  0  0  0  0  0  0  0  0  0
    2.3636   -3.4726    0.0000 H   0  0  0  0  0  0  0  0  0  0  0  0
   12.0708    1.1029    0.0000 H   0  0  0  0  0  0  0  0  0  0  0  0
   12.0708    2.7686    0.0000 H   0  0  0  0  0  0  0  0  0  0  0  0
  1 12  1  0  0  0  0
  1 16  1  0  0  0  0
  2  3  1  0  0  0  0
  2 11  1  0  0  0  0
  2 12  1  0  0  0  0
  3  9  2  0  0  0  0
  4  7  1  0  0  0  0
  4 17  1  0  0  0  0
  4 24  1  0  0  0  0
  5  6  1  0  0  0  0
  5 11  2  0  0  0  0
  6 12  2  0  0  0  0
  7 20  2  0  0  0  0
  8 18  1  0  0  0  0
  8 26  2  0  0  0  0
  9 10  1  0  0  0  0
  9 13  1  0  0  0  0
 10 17  2  0  0  0  0
 10 20  1  0  0  0  0
 11 14  1  0  0  0  0
 13 14  2  0  0  0  0
 13 27  1  0  0  0  0
 14 28  1  0  0  0  0
 15 18  2  0  0  0  0
 15 19  1  0  0  0  0
 15 23  1  0  0  0  0
 16 19  2  0  0  0  0
 16 21  1  0  0  0  0
 17 29  1  0  0  0  0
 18 22  1  0  0  0  0
 19 30  1  0  0  0  0
 20 31  1  0  0  0  0
 21 22  2  0  0  0  0
 21 32  1  0  0  0  0
 22 33  1  0  0  0  0
 23 25  2  0  0  0  0
 23 34  1  0  0  0  0
 24 35  1  0  0  0  0
 24 36  1  0  0  0  0
 24 37  1  0  0  0  0
 25 26  1  0  0  0  0
 25 38  1  0  0  0  0
 26 39  1  0  0  0  0
M  END
> <PUBCHEM_COMPOUND_CID>
24779724

> <PUBCHEM_COMPOUND_CANONICALIZED>
1

> <PUBCHEM_CACTVS_COMPLEXITY>
494

> <PUBCHEM_CACTVS_HBOND_ACCEPTOR>
6

> <PUBCHEM_CACTVS_HBOND_DONOR>
0

> <PUBCHEM_CACTVS_ROTATABLE_BOND>
3

> <PUBCHEM_CACTVS_SUBSKEYS>
AAADccB7gABAAAAAAAAAAAAAAAAAAWLAAAA8WIAAAAAAAFix/gAAHAQIAAAADAjBXwQ/8f4IEAiiAzZnZACS1CtxirAd2Dg4ZJiIKOLg2dGEpAhgiALIyCcQgIAOAAQAgAACAAAACAEAAAQAAAAAAAAAAA==

> <PUBCHEM_IUPAC_OPENEYE_NAME>
6-[[6-(1-methylpyrazol-4-yl)-[1,2,4]triazolo[4,3-b]pyridazin-3-yl]sulfanyl]quinoline

> <PUBCHEM_IUPAC_CAS_NAME>
6-[[6-(1-methyl-4-pyrazolyl)-[1,2,4]triazolo[4,3-b]pyridazin-3-yl]thio]quinoline

> <PUBCHEM_IUPAC_NAME>
6-[[6-(1-methylpyrazol-4-yl)-[1,2,4]triazolo[4,3-b]pyridazin-3-yl]sulfanyl]quinoline

> <PUBCHEM_IUPAC_SYSTEMATIC_NAME>
6-[[6-(1-methylpyrazol-4-yl)-[1,2,4]triazolo[4,3-b]pyridazin-3-yl]sulfanyl]quinoline

> <PUBCHEM_IUPAC_TRADITIONAL_NAME>
6-[[6-(1-methylpyrazol-4-yl)-[1,2,4]triazolo[4,3-b]pyridazin-3-yl]thio]quinoline

> <PUBCHEM_IUPAC_INCHI>
InChI=1S/C18H13N7S/c1-24-11-13(10-20-24)16-6-7-17-21-22-18(25(17)23-16)26-14-4-5-15-12(9-14)3-2-8-19-15/h2-11H,1H3

> <PUBCHEM_IUPAC_INCHIKEY>
BCZUAADEACICHN-UHFFFAOYSA-N

> <PUBCHEM_XLOGP3_AA>
2.4

> <PUBCHEM_EXACT_MASS>
359.095

> <PUBCHEM_MOLECULAR_FORMULA>
C18H13N7S

> <PUBCHEM_MOLECULAR_WEIGHT>
359.411

> <PUBCHEM_OPENEYE_CAN_SMILES>
CN1C=C(C=N1)C2=NN3C(=NN=C3SC4=CC5=C(C=C4)N=CC=C5)C=C2

> <PUBCHEM_OPENEYE_ISO_SMILES>
CN1C=C(C=N1)C2=NN3C(=NN=C3SC4=CC5=C(C=C4)N=CC=C5)C=C2

> <PUBCHEM_CACTVS_TPSA>
99.1

> <PUBCHEM_MONOISOTOPIC_WEIGHT>
359.095

> <PUBCHEM_TOTAL_CHARGE>
0

> <PUBCHEM_HEAVY_ATOM_COUNT>
26

> <PUBCHEM_ATOM_DEF_STEREO_COUNT>
0

> <PUBCHEM_ATOM_UDEF_STEREO_COUNT>
0

> <PUBCHEM_BOND_DEF_STEREO_COUNT>
0

> <PUBCHEM_BOND_UDEF_STEREO_COUNT>
0

> <PUBCHEM_ISOTOPIC_ATOM_COUNT>
0

> <PUBCHEM_COMPONENT_COUNT>
1

> <PUBCHEM_CACTVS_TAUTO_COUNT>
1

> <PUBCHEM_COORDINATE_TYPE>
1
5
255

> <PUBCHEM_BONDANNOTATIONS>
10  17  8
10  20  8
11  14  8
13  14  8
15  18  8
15  19  8
15  23  8
16  19  8
16  21  8
18  22  8
2  11  8
2  12  8
2  3  8
21  22  8
23  25  8
25  26  8
3  9  8
4  17  8
4  7  8
5  11  8
5  6  8
6  12  8
7  20  8
8  18  8
8  26  8
9  13  8

$$$$
9869779
  -OEChem-11021605012D

 58 61  0     1  0  0  0  0  0999 V2000
   11.5366   -3.5436    0.0000 S   0  0  0  0  0  0  0  0  0  0  0  0
    5.4804    1.1200    0.0000 O   0  0  0  0  0  0  0  0  0  0  0  0
    2.0000    2.1546    0.0000 O   0  0  0  0  0  0  0  0  0  0  0  0
    8.9443    1.0800    0.0000 O   0  0  0  0  0  0  0  0  0  0  0  0
    2.0000    4.1546    0.0000 O   0  0  0  0  0  0  0  0  0  0  0  0
    8.0379   -2.4098    0.0000 O   0  0  0  0  0  0  0  0  0  0  0  0
    9.7698   -2.4298    0.0000 N   0  0  0  0  0  0  0  0  0  0  0  0
    8.9212   -0.9199    0.0000 N   0  0  0  0  0  0  0  0  0  0  0  0
    5.4920    4.1893    0.0000 N   0  0  0  0  0  0  0  0  0  0  0  0
   10.7115   -4.9354    0.0000 N   0  0  0  0  0  0  0  0  0  0  0  0
    9.7583   -3.4298    0.0000 C   0  0  3  0  0  0  0  0  0  0  0  0
    4.5981    2.6546    0.0000 C   0  0  0  0  0  0  0  0  0  0  0  0
    5.4920    2.1199    0.0000 C   0  0  0  0  0  0  0  0  0  0  0  0
    4.5981    3.6546    0.0000 C   0  0  0  0  0  0  0  0  0  0  0  0
    8.0610   -0.4099    0.0000 C   0  0  0  0  0  0  0  0  0  0  0  0
    3.7320    2.1546    0.0000 C   0  0  0  0  0  0  0  0  0  0  0  0
    6.3406    0.6100    0.0000 C   0  0  0  0  0  0  0  0  0  0  0  0
    2.8660    2.6546    0.0000 C   0  0  0  0  0  0  0  0  0  0  0  0
    3.7320    4.1546    0.0000 C   0  0  0  0  0  0  0  0  0  0  0  0
    8.8865   -3.9197    0.0000 C   0  0  0  0  0  0  0  0  0  0  0  0
   10.6184   -3.9397    0.0000 C   0  0  0  0  0  0  0  0  0  0  0  0
    8.0726    0.5900    0.0000 C   0  0  0  0  0  0  0  0  0  0  0  0
    2.8660    3.6546    0.0000 C   0  0  0  0  0  0  0  0  0  0  0  0
    7.2124    1.1000    0.0000 C   0  0  0  0  0  0  0  0  0  0  0  0
    7.1893   -0.8999    0.0000 C   0  0  0  0  0  0  0  0  0  0  0  0
    6.3981    2.6338    0.0000 C   0  0  0  0  0  0  0  0  0  0  0  0
    8.9096   -1.9198    0.0000 C   0  0  0  0  0  0  0  0  0  0  0  0
    6.3291   -0.3899    0.0000 C   0  0  0  0  0  0  0  0  0  0  0  0
    6.3981    3.6754    0.0000 C   0  0  0  0  0  0  0  0  0  0  0  0
   12.1971   -4.2944    0.0000 C   0  0  0  0  0  0  0  0  0  0  0  0
   11.6871   -5.1546    0.0000 C   0  0  0  0  0  0  0  0  0  0  0  0
    2.0000    1.1546    0.0000 C   0  0  0  0  0  0  0  0  0  0  0  0
    8.9559    2.0799    0.0000 C   0  0  0  0  0  0  0  0  0  0  0  0
    2.0000    5.1546    0.0000 C   0  0  0  0  0  0  0  0  0  0  0  0
   10.4992   -3.0133    0.0000 H   0  0  0  0  0  0  0  0  0  0  0  0
    3.7320    1.5346    0.0000 H   0  0  0  0  0  0  0  0  0  0  0  0
   10.3103   -2.1261    0.0000 H   0  0  0  0  0  0  0  0  0  0  0  0
    8.5827   -3.3792    0.0000 H   0  0  0  0  0  0  0  0  0  0  0  0
    8.3460   -4.2235    0.0000 H   0  0  0  0  0  0  0  0  0  0  0  0
    9.1903   -4.4602    0.0000 H   0  0  0  0  0  0  0  0  0  0  0  0
    3.7320    4.7746    0.0000 H   0  0  0  0  0  0  0  0  0  0  0  0
    7.2196    1.7199    0.0000 H   0  0  0  0  0  0  0  0  0  0  0  0
    9.4617   -0.6161    0.0000 H   0  0  0  0  0  0  0  0  0  0  0  0
    7.1821   -1.5198    0.0000 H   0  0  0  0  0  0  0  0  0  0  0  0
    6.9338    2.3217    0.0000 H   0  0  0  0  0  0  0  0  0  0  0  0
    5.7886   -0.6937    0.0000 H   0  0  0  0  0  0  0  0  0  0  0  0
    6.9338    3.9875    0.0000 H   0  0  0  0  0  0  0  0  0  0  0  0
   12.8144   -4.2368    0.0000 H   0  0  0  0  0  0  0  0  0  0  0  0
   11.9328   -5.7239    0.0000 H   0  0  0  0  0  0  0  0  0  0  0  0
    1.3800    1.1546    0.0000 H   0  0  0  0  0  0  0  0  0  0  0  0
    2.0000    0.5346    0.0000 H   0  0  0  0  0  0  0  0  0  0  0  0
    2.6200    1.1546    0.0000 H   0  0  0  0  0  0  0  0  0  0  0  0
    9.5759    2.0727    0.0000 H   0  0  0  0  0  0  0  0  0  0  0  0
    8.9631    2.6998    0.0000 H   0  0  0  0  0  0  0  0  0  0  0  0
    8.3359    2.0871    0.0000 H   0  0  0  0  0  0  0  0  0  0  0  0
    2.6200    5.1546    0.0000 H   0  0  0  0  0  0  0  0  0  0  0  0
    2.0000    5.7746    0.0000 H   0  0  0  0  0  0  0  0  0  0  0  0
    1.3800    5.1546    0.0000 H   0  0  0  0  0  0  0  0  0  0  0  0
  1 21  1  0  0  0  0
  1 30  1  0  0  0  0
  2 13  1  0  0  0  0
  2 17  1  0  0  0  0
  3 18  1  0  0  0  0
  3 32  1  0  0  0  0
  4 22  1  0  0  0  0
  4 33  1  0  0  0  0
  5 23  1  0  0  0  0
  5 34  1  0  0  0  0
  6 27  2  0  0  0  0
  7 11  1  0  0  0  0
  7 27  1  0  0  0  0
  7 37  1  0  0  0  0
  8 15  1  0  0  0  0
  8 27  1  0  0  0  0
  8 43  1  0  0  0  0
  9 14  2  0  0  0  0
  9 29  1  0  0  0  0
 10 21  2  0  0  0  0
 10 31  1  0  0  0  0
 11 20  1  0  0  0  0
 11 21  1  0  0  0  0
 11 35  1  0  0  0  0
 12 13  2  0  0  0  0
 12 14  1  0  0  0  0
 12 16  1  0  0  0  0
 13 26  1  0  0  0  0
 14 19  1  0  0  0  0
 15 22  2  0  0  0  0
 15 25  1  0  0  0  0
 16 18  2  0  0  0  0
 16 36  1  0  0  0  0
 17 24  2  0  0  0  0
 17 28  1  0  0  0  0
 18 23  1  0  0  0  0
 19 23  2  0  0  0  0
 19 41  1  0  0  0  0
 20 38  1  0  0  0  0
 20 39  1  0  0  0  0
 20 40  1  0  0  0  0
 22 24  1  0  0  0  0
 24 42  1  0  0  0  0
 25 28  2  0  0  0  0
 25 44  1  0  0  0  0
 26 29  2  0  0  0  0
 26 45  1  0  0  0  0
 28 46  1  0  0  0  0
 29 47  1  0  0  0  0
 30 31  2  0  0  0  0
 30 48  1  0  0  0  0
 31 49  1  0  0  0  0
 32 50  1  0  0  0  0
 32 51  1  0  0  0  0
 32 52  1  0  0  0  0
 33 53  1  0  0  0  0
 33 54  1  0  0  0  0
 33 55  1  0  0  0  0
 34 56  1  0  0  0  0
 34 57  1  0  0  0  0
 34 58  1  0  0  0  0
M  END
> <PUBCHEM_COMPOUND_CID>
9869779

> <PUBCHEM_COMPOUND_CANONICALIZED>
1

> <PUBCHEM_CACTVS_COMPLEXITY>
661

> <PUBCHEM_CACTVS_HBOND_ACCEPTOR>
8

> <PUBCHEM_CACTVS_HBOND_DONOR>
2

> <PUBCHEM_CACTVS_ROTATABLE_BOND>
8

> <PUBCHEM_CACTVS_SUBSKEYS>
AAADceB7uABAAAAAAAAAAAAAAAAAAWAAAAA8YIAAAAAAAACx/AAAHgQQAAAADCzF3ga/x/LIFAisAzRnVACC+KBxKjhI2Kw/7JiPZ+LksZuXOCrv1h/66Cfw8L8OIEABCgACUABAgAIUAASgAAAAAAAAAA==

> <PUBCHEM_IUPAC_OPENEYE_NAME>
1-[4-[(6,7-dimethoxy-4-quinolyl)oxy]-2-methoxy-phenyl]-3-(1-thiazol-2-ylethyl)urea

> <PUBCHEM_IUPAC_CAS_NAME>
1-[4-[(6,7-dimethoxy-4-quinolinyl)oxy]-2-methoxyphenyl]-3-[1-(2-thiazolyl)ethyl]urea

> <PUBCHEM_IUPAC_NAME>
1-[4-(6,7-dimethoxyquinolin-4-yl)oxy-2-methoxyphenyl]-3-[1-(1,3-thiazol-2-yl)ethyl]urea

> <PUBCHEM_IUPAC_SYSTEMATIC_NAME>
1-[4-(6,7-dimethoxyquinolin-4-yl)oxy-2-methoxy-phenyl]-3-[1-(1,3-thiazol-2-yl)ethyl]urea

> <PUBCHEM_IUPAC_TRADITIONAL_NAME>
1-[4-[(6,7-dimethoxy-4-quinolyl)oxy]-2-methoxy-phenyl]-3-(1-thiazol-2-ylethyl)urea

> <PUBCHEM_IUPAC_INCHI>
InChI=1S/C24H24N4O5S/c1-14(23-26-9-10-34-23)27-24(29)28-17-6-5-15(11-20(17)30-2)33-19-7-8-25-18-13-22(32-4)21(31-3)12-16(18)19/h5-14H,1-4H3,(H2,27,28,29)

> <PUBCHEM_IUPAC_INCHIKEY>
SHPFDGWALWEPGS-UHFFFAOYSA-N

> <PUBCHEM_XLOGP3_AA>
3.6

> <PUBCHEM_EXACT_MASS>
480.147

> <PUBCHEM_MOLECULAR_FORMULA>
C24H24N4O5S

> <PUBCHEM_MOLECULAR_WEIGHT>
480.539

> <PUBCHEM_OPENEYE_CAN_SMILES>
CC(C1=NC=CS1)NC(=O)NC2=C(C=C(C=C2)OC3=C4C=C(C(=CC4=NC=C3)OC)OC)OC

> <PUBCHEM_OPENEYE_ISO_SMILES>
CC(C1=NC=CS1)NC(=O)NC2=C(C=C(C=C2)OC3=C4C=C(C(=CC4=NC=C3)OC)OC)OC

> <PUBCHEM_CACTVS_TPSA>
132

> <PUBCHEM_MONOISOTOPIC_WEIGHT>
480.147

> <PUBCHEM_TOTAL_CHARGE>
0

> <PUBCHEM_HEAVY_ATOM_COUNT>
34

> <PUBCHEM_ATOM_DEF_STEREO_COUNT>
0

> <PUBCHEM_ATOM_UDEF_STEREO_COUNT>
1

> <PUBCHEM_BOND_DEF_STEREO_COUNT>
0

> <PUBCHEM_BOND_UDEF_STEREO_COUNT>
0

> <PUBCHEM_ISOTOPIC_ATOM_COUNT>
0

> <PUBCHEM_COMPONENT_COUNT>
1

> <PUBCHEM_CACTVS_TAUTO_COUNT>
3

> <PUBCHEM_COORDINATE_TYPE>
1
5
255

> <PUBCHEM_BONDANNOTATIONS>
1  21  8
1  30  8
10  21  8
10  31  8
11  35  3
12  13  8
12  14  8
12  16  8
13  26  8
14  19  8
15  22  8
15  25  8
16  18  8
17  24  8
17  28  8
18  23  8
19  23  8
22  24  8
25  28  8
26  29  8
30  31  8
9  14  8
9  29  8

$$$$
11717001
  -OEChem-11021605012D

 43 46  0     0  0  0  0  0  0999 V2000
   10.3407    2.7855    0.0000 O   0  0  0  0  0  0  0  0  0  0  0  0
    2.6166   -3.3100    0.0000 O   0  0  0  0  0  0  0  0  0  0  0  0
    4.4246   -1.3784    0.0000 N   0  0  0  0  0  0  0  0  0  0  0  0
    3.9246   -0.5124    0.0000 N   0  0  0  0  0  0  0  0  0  0  0  0
    9.3622    2.5793    0.0000 N   0  0  0  0  0  0  0  0  0  0  0  0
    3.9700    3.1652    0.0000 N   0  0  0  0  0  0  0  0  0  0  0  0
    8.1054    0.3240    0.0000 C   0  0  0  0  0  0  0  0  0  0  0  0
    9.0516    0.0193    0.0000 C   0  0  0  0  0  0  0  0  0  0  0  0
    8.1054    1.3240    0.0000 C   0  0  0  0  0  0  0  0  0  0  0  0
    9.6352    0.8240    0.0000 C   0  0  0  0  0  0  0  0  0  0  0  0
    9.0516    1.6288    0.0000 C   0  0  0  0  0  0  0  0  0  0  0  0
    6.3733    0.3240    0.0000 C   0  0  0  0  0  0  0  0  0  0  0  0
    7.2393   -0.1760    0.0000 C   0  0  0  0  0  0  0  0  0  0  0  0
    5.5073   -0.1760    0.0000 C   0  0  0  0  0  0  0  0  0  0  0  0
    7.2393    1.8240    0.0000 C   0  0  0  0  0  0  0  0  0  0  0  0
    6.3733    1.3240    0.0000 C   0  0  0  0  0  0  0  0  0  0  0  0
    4.5937    0.2308    0.0000 C   0  0  0  0  0  0  0  0  0  0  0  0
    5.4028   -1.1705    0.0000 C   0  0  0  0  0  0  0  0  0  0  0  0
    4.0179   -2.2920    0.0000 C   0  0  0  0  0  0  0  0  0  0  0  0
    4.3858    1.2089    0.0000 C   0  0  0  0  0  0  0  0  0  0  0  0
    3.0233   -2.3965    0.0000 C   0  0  0  0  0  0  0  0  0  0  0  0
    3.4348    1.5179    0.0000 C   0  0  0  0  0  0  0  0  0  0  0  0
    5.1290    1.8780    0.0000 C   0  0  0  0  0  0  0  0  0  0  0  0
    3.2269    2.4961    0.0000 C   0  0  0  0  0  0  0  0  0  0  0  0
    4.9210    2.8562    0.0000 C   0  0  0  0  0  0  0  0  0  0  0  0
    8.8005   -0.5476    0.0000 H   0  0  0  0  0  0  0  0  0  0  0  0
    9.5890   -0.2899    0.0000 H   0  0  0  0  0  0  0  0  0  0  0  0
   10.0960    0.4093    0.0000 H   0  0  0  0  0  0  0  0  0  0  0  0
   10.0960    1.2388    0.0000 H   0  0  0  0  0  0  0  0  0  0  0  0
    7.2393   -0.7960    0.0000 H   0  0  0  0  0  0  0  0  0  0  0  0
    7.2393    2.4440    0.0000 H   0  0  0  0  0  0  0  0  0  0  0  0
    5.8364    1.6340    0.0000 H   0  0  0  0  0  0  0  0  0  0  0  0
    5.8635   -1.5854    0.0000 H   0  0  0  0  0  0  0  0  0  0  0  0
    3.9746   -2.9104    0.0000 H   0  0  0  0  0  0  0  0  0  0  0  0
    4.6194   -2.4419    0.0000 H   0  0  0  0  0  0  0  0  0  0  0  0
    3.0666   -1.7780    0.0000 H   0  0  0  0  0  0  0  0  0  0  0  0
    2.4218   -2.2465    0.0000 H   0  0  0  0  0  0  0  0  0  0  0  0
    2.9740    1.1031    0.0000 H   0  0  0  0  0  0  0  0  0  0  0  0
    5.7186    1.6865    0.0000 H   0  0  0  0  0  0  0  0  0  0  0  0
    2.6372    2.6877    0.0000 H   0  0  0  0  0  0  0  0  0  0  0  0
    5.3818    3.2711    0.0000 H   0  0  0  0  0  0  0  0  0  0  0  0
   10.5333    3.3748    0.0000 H   0  0  0  0  0  0  0  0  0  0  0  0
    2.0000   -3.3748    0.0000 H   0  0  0  0  0  0  0  0  0  0  0  0
  1  5  1  0  0  0  0
  1 42  1  0  0  0  0
  2 21  1  0  0  0  0
  2 43  1  0  0  0  0
  3  4  1  0  0  0  0
  3 18  1  0  0  0  0
  3 19  1  0  0  0  0
  4 17  2  0  0  0  0
  5 11  2  0  0  0  0
  6 24  2  0  0  0  0
  6 25  1  0  0  0  0
  7  8  1  0  0  0  0
  7  9  2  0  0  0  0
  7 13  1  0  0  0  0
  8 10  1  0  0  0  0
  8 26  1  0  0  0  0
  8 27  1  0  0  0  0
  9 11  1  0  0  0  0
  9 15  1  0  0  0  0
 10 11  1  0  0  0  0
 10 28  1  0  0  0  0
 10 29  1  0  0  0  0
 12 13  2  0  0  0  0
 12 14  1  0  0  0  0
 12 16  1  0  0  0  0
 13 30  1  0  0  0  0
 14 17  1  0  0  0  0
 14 18  2  0  0  0  0
 15 16  2  0  0  0  0
 15 31  1  0  0  0  0
 16 32  1  0  0  0  0
 17 20  1  0  0  0  0
 18 33  1  0  0  0  0
 19 21  1  0  0  0  0
 19 34  1  0  0  0  0
 19 35  1  0  0  0  0
 20 22  2  0  0  0  0
 20 23  1  0  0  0  0
 21 36  1  0  0  0  0
 21 37  1  0  0  0  0
 22 24  1  0  0  0  0
 22 38  1  0  0  0  0
 23 25  2  0  0  0  0
 23 39  1  0  0  0  0
 24 40  1  0  0  0  0
 25 41  1  0  0  0  0
M  END
> <PUBCHEM_COMPOUND_CID>
11717001

> <PUBCHEM_COMPOUND_CANONICALIZED>
1

> <PUBCHEM_CACTVS_COMPLEXITY>
480

> <PUBCHEM_CACTVS_HBOND_ACCEPTOR>
5

> <PUBCHEM_CACTVS_HBOND_DONOR>
2

> <PUBCHEM_CACTVS_ROTATABLE_BOND>
4

> <PUBCHEM_CACTVS_SUBSKEYS>
AAADceB7sAAAAAAAAAAAAAAAAAAAAeIAAAA8QAAAAAAAAGAB8AAAHgAMCAAADAjhngY8gJIYEgCiAzRnRACShCAxgiAY2CA4ZJgKMOLA0dGEpAhgiADYyAcQgMAOwAACAAAQAACAAAQAACAAAAAACAAAAA==

> <PUBCHEM_IUPAC_OPENEYE_NAME>
5-[1-(2-hydroxyethyl)-3-(4-pyridyl)pyrazol-4-yl]indan-1-one oxime

> <PUBCHEM_IUPAC_CAS_NAME>
5-[1-(2-hydroxyethyl)-3-pyridin-4-yl-4-pyrazolyl]-2,3-dihydroinden-1-one oxime

> <PUBCHEM_IUPAC_NAME>
2-[4-[(1E)-1-hydroxyimino-2,3-dihydroinden-5-yl]-3-pyridin-4-ylpyrazol-1-yl]ethanol

> <PUBCHEM_IUPAC_SYSTEMATIC_NAME>
2-[4-[(1E)-1-hydroxyimino-2,3-dihydroinden-5-yl]-3-pyridin-4-yl-pyrazol-1-yl]ethanol

> <PUBCHEM_IUPAC_TRADITIONAL_NAME>
5-[1-(2-hydroxyethyl)-3-(4-pyridyl)pyrazol-4-yl]indan-1-one oxime

> <PUBCHEM_IUPAC_INCHI>
InChI=1S/C19H18N4O2/c24-10-9-23-12-17(19(21-23)13-5-7-20-8-6-13)15-1-3-16-14(11-15)2-4-18(16)22-25/h1,3,5-8,11-12,24-25H,2,4,9-10H2/b22-18+

> <PUBCHEM_IUPAC_INCHIKEY>
DEZZLWQELQORIU-RELWKKBWSA-N

> <PUBCHEM_XLOGP3_AA>
1.7

> <PUBCHEM_EXACT_MASS>
334.143

> <PUBCHEM_MOLECULAR_FORMULA>
C19H18N4O2

> <PUBCHEM_MOLECULAR_WEIGHT>
334.379

> <PUBCHEM_OPENEYE_CAN_SMILES>
C1CC(=NO)C2=C1C=C(C=C2)C3=CN(N=C3C4=CC=NC=C4)CCO

> <PUBCHEM_OPENEYE_ISO_SMILES>
C1C/C(=N\O)/C2=C1C=C(C=C2)C3=CN(N=C3C4=CC=NC=C4)CCO

> <PUBCHEM_CACTVS_TPSA>
83.5

> <PUBCHEM_MONOISOTOPIC_WEIGHT>
334.143

> <PUBCHEM_TOTAL_CHARGE>
0

> <PUBCHEM_HEAVY_ATOM_COUNT>
25

> <PUBCHEM_ATOM_DEF_STEREO_COUNT>
0

> <PUBCHEM_ATOM_UDEF_STEREO_COUNT>
0

> <PUBCHEM_BOND_DEF_STEREO_COUNT>
1

> <PUBCHEM_BOND_UDEF_STEREO_COUNT>
0

> <PUBCHEM_ISOTOPIC_ATOM_COUNT>
0

> <PUBCHEM_COMPONENT_COUNT>
1

> <PUBCHEM_CACTVS_TAUTO_COUNT>
3

> <PUBCHEM_COORDINATE_TYPE>
1
5
255

> <PUBCHEM_BONDANNOTATIONS>
12  13  8
12  16  8
14  17  8
14  18  8
15  16  8
20  22  8
20  23  8
22  24  8
23  25  8
3  18  8
3  4  8
4  17  8
6  24  8
6  25  8
7  13  8
7  9  8
9  15  8

$$$$
42642645
  -OEChem-11021605012D

 80 85  0     0  0  0  0  0  0999 V2000
   10.6881    1.7424    0.0000 F   0  0  0  0  0  0  0  0  0  0  0  0
   14.0363   -8.2970    0.0000 F   0  0  0  0  0  0  0  0  0  0  0  0
   11.5020   -2.7674    0.0000 O   0  0  0  0  0  0  0  0  0  0  0  0
   12.3506   -4.2773    0.0000 O   0  0  0  0  0  0  0  0  0  0  0  0
    2.0000    7.7970    0.0000 O   0  0  0  0  0  0  0  0  0  0  0  0
    8.9446    0.7624    0.0000 O   0  0  0  0  0  0  0  0  0  0  0  0
    5.4641    3.7970    0.0000 O   0  0  0  0  0  0  0  0  0  0  0  0
    5.4641    1.7970    0.0000 O   0  0  0  0  0  0  0  0  0  0  0  0
   12.3853   -1.2775    0.0000 N   0  0  0  0  0  0  0  0  0  0  0  0
   14.0825   -4.2973    0.0000 N   0  0  0  0  0  0  0  0  0  0  0  0
    3.7320    6.7970    0.0000 N   0  0  0  0  0  0  0  0  0  0  0  0
    8.9561    3.8317    0.0000 N   0  0  0  0  0  0  0  0  0  0  0  0
   13.2339   -2.7874    0.0000 C   0  0  0  0  0  0  0  0  0  0  0  0
   14.2339   -2.7990    0.0000 C   0  0  0  0  0  0  0  0  0  0  0  0
   13.7439   -1.9272    0.0000 C   0  0  0  0  0  0  0  0  0  0  0  0
   12.3737   -2.2774    0.0000 C   0  0  0  0  0  0  0  0  0  0  0  0
   13.2224   -3.7873    0.0000 C   0  0  0  0  0  0  0  0  0  0  0  0
   11.5251   -0.7675    0.0000 C   0  0  0  0  0  0  0  0  0  0  0  0
   14.0710   -5.2972    0.0000 C   0  0  0  0  0  0  0  0  0  0  0  0
   11.5367    0.2324    0.0000 C   0  0  0  0  0  0  0  0  0  0  0  0
   10.6534   -1.2574    0.0000 C   0  0  0  0  0  0  0  0  0  0  0  0
   13.1992   -5.7872    0.0000 C   0  0  0  0  0  0  0  0  0  0  0  0
   14.9312   -5.8072    0.0000 C   0  0  0  0  0  0  0  0  0  0  0  0
   10.6765    0.7424    0.0000 C   0  0  0  0  0  0  0  0  0  0  0  0
    9.7932   -0.7475    0.0000 C   0  0  0  0  0  0  0  0  0  0  0  0
   13.1877   -6.7871    0.0000 C   0  0  0  0  0  0  0  0  0  0  0  0
   14.9196   -6.8072    0.0000 C   0  0  0  0  0  0  0  0  0  0  0  0
    3.7320    7.7970    0.0000 C   0  0  0  0  0  0  0  0  0  0  0  0
    2.8660    6.2970    0.0000 C   0  0  0  0  0  0  0  0  0  0  0  0
    4.5981    6.2970    0.0000 C   0  0  0  0  0  0  0  0  0  0  0  0
    9.8047    0.2525    0.0000 C   0  0  0  0  0  0  0  0  0  0  0  0
    2.0000    6.7970    0.0000 C   0  0  0  0  0  0  0  0  0  0  0  0
    2.8660    8.2970    0.0000 C   0  0  0  0  0  0  0  0  0  0  0  0
   14.0479   -7.2971    0.0000 C   0  0  0  0  0  0  0  0  0  0  0  0
    4.5981    5.2970    0.0000 C   0  0  0  0  0  0  0  0  0  0  0  0
    5.4641    4.7970    0.0000 C   0  0  0  0  0  0  0  0  0  0  0  0
    8.9561    1.7624    0.0000 C   0  0  0  0  0  0  0  0  0  0  0  0
    8.0622    2.2970    0.0000 C   0  0  0  0  0  0  0  0  0  0  0  0
    6.3301    3.2970    0.0000 C   0  0  0  0  0  0  0  0  0  0  0  0
    8.0622    3.2970    0.0000 C   0  0  0  0  0  0  0  0  0  0  0  0
    6.3301    2.2970    0.0000 C   0  0  0  0  0  0  0  0  0  0  0  0
    7.1962    3.7970    0.0000 C   0  0  0  0  0  0  0  0  0  0  0  0
    7.1962    1.7970    0.0000 C   0  0  0  0  0  0  0  0  0  0  0  0
    9.8622    2.2762    0.0000 C   0  0  0  0  0  0  0  0  0  0  0  0
    9.8622    3.3178    0.0000 C   0  0  0  0  0  0  0  0  0  0  0  0
    5.4641    0.7970    0.0000 C   0  0  0  0  0  0  0  0  0  0  0  0
   14.3344   -3.4107    0.0000 H   0  0  0  0  0  0  0  0  0  0  0  0
   14.8189   -2.5936    0.0000 H   0  0  0  0  0  0  0  0  0  0  0  0
   14.2234   -1.5342    0.0000 H   0  0  0  0  0  0  0  0  0  0  0  0
   13.2736   -1.5232    0.0000 H   0  0  0  0  0  0  0  0  0  0  0  0
   12.9258   -0.9737    0.0000 H   0  0  0  0  0  0  0  0  0  0  0  0
   14.6230   -3.9935    0.0000 H   0  0  0  0  0  0  0  0  0  0  0  0
   12.0772    0.5362    0.0000 H   0  0  0  0  0  0  0  0  0  0  0  0
   10.6462   -1.8774    0.0000 H   0  0  0  0  0  0  0  0  0  0  0  0
   12.6659   -5.4710    0.0000 H   0  0  0  0  0  0  0  0  0  0  0  0
   15.4717   -5.5034    0.0000 H   0  0  0  0  0  0  0  0  0  0  0  0
    9.2527   -1.0512    0.0000 H   0  0  0  0  0  0  0  0  0  0  0  0
    4.3426    7.6894    0.0000 H   0  0  0  0  0  0  0  0  0  0  0  0
    3.9441    8.3796    0.0000 H   0  0  0  0  0  0  0  0  0  0  0  0
    2.4675    5.8221    0.0000 H   0  0  0  0  0  0  0  0  0  0  0  0
    3.2646    5.8221    0.0000 H   0  0  0  0  0  0  0  0  0  0  0  0
    5.2087    6.1894    0.0000 H   0  0  0  0  0  0  0  0  0  0  0  0
    4.8101    6.8796    0.0000 H   0  0  0  0  0  0  0  0  0  0  0  0
   12.6472   -7.0909    0.0000 H   0  0  0  0  0  0  0  0  0  0  0  0
   15.4529   -7.1233    0.0000 H   0  0  0  0  0  0  0  0  0  0  0  0
    3.2646    8.7720    0.0000 H   0  0  0  0  0  0  0  0  0  0  0  0
    2.4675    8.7720    0.0000 H   0  0  0  0  0  0  0  0  0  0  0  0
    1.3894    6.9047    0.0000 H   0  0  0  0  0  0  0  0  0  0  0  0
    1.7880    6.2144    0.0000 H   0  0  0  0  0  0  0  0  0  0  0  0
    3.9875    5.4047    0.0000 H   0  0  0  0  0  0  0  0  0  0  0  0
    4.3860    4.7144    0.0000 H   0  0  0  0  0  0  0  0  0  0  0  0
    6.0747    4.6894    0.0000 H   0  0  0  0  0  0  0  0  0  0  0  0
    5.6762    5.3796    0.0000 H   0  0  0  0  0  0  0  0  0  0  0  0
    7.1962    4.4170    0.0000 H   0  0  0  0  0  0  0  0  0  0  0  0
    7.1962    1.1770    0.0000 H   0  0  0  0  0  0  0  0  0  0  0  0
   10.3979    1.9642    0.0000 H   0  0  0  0  0  0  0  0  0  0  0  0
   10.3979    3.6299    0.0000 H   0  0  0  0  0  0  0  0  0  0  0  0
    4.8441    0.7970    0.0000 H   0  0  0  0  0  0  0  0  0  0  0  0
    5.4641    0.1770    0.0000 H   0  0  0  0  0  0  0  0  0  0  0  0
    6.0841    0.7970    0.0000 H   0  0  0  0  0  0  0  0  0  0  0  0
  1 24  1  0  0  0  0
  2 34  1  0  0  0  0
  3 16  2  0  0  0  0
  4 17  2  0  0  0  0
  5 32  1  0  0  0  0
  5 33  1  0  0  0  0
  6 31  1  0  0  0  0
  6 37  1  0  0  0  0
  7 36  1  0  0  0  0
  7 39  1  0  0  0  0
  8 41  1  0  0  0  0
  8 46  1  0  0  0  0
  9 16  1  0  0  0  0
  9 18  1  0  0  0  0
  9 51  1  0  0  0  0
 10 17  1  0  0  0  0
 10 19  1  0  0  0  0
 10 52  1  0  0  0  0
 11 28  1  0  0  0  0
 11 29  1  0  0  0  0
 11 30  1  0  0  0  0
 12 40  2  0  0  0  0
 12 45  1  0  0  0  0
 13 14  1  0  0  0  0
 13 15  1  0  0  0  0
 13 16  1  0  0  0  0
 13 17  1  0  0  0  0
 14 15  1  0  0  0  0
 14 47  1  0  0  0  0
 14 48  1  0  0  0  0
 15 49  1  0  0  0  0
 15 50  1  0  0  0  0
 18 20  2  0  0  0  0
 18 21  1  0  0  0  0
 19 22  2  0  0  0  0
 19 23  1  0  0  0  0
 20 24  1  0  0  0  0
 20 53  1  0  0  0  0
 21 25  2  0  0  0  0
 21 54  1  0  0  0  0
 22 26  1  0  0  0  0
 22 55  1  0  0  0  0
 23 27  2  0  0  0  0
 23 56  1  0  0  0  0
 24 31  2  0  0  0  0
 25 31  1  0  0  0  0
 25 57  1  0  0  0  0
 26 34  2  0  0  0  0
 26 64  1  0  0  0  0
 27 34  1  0  0  0  0
 27 65  1  0  0  0  0
 28 33  1  0  0  0  0
 28 58  1  0  0  0  0
 28 59  1  0  0  0  0
 29 32  1  0  0  0  0
 29 60  1  0  0  0  0
 29 61  1  0  0  0  0
 30 35  1  0  0  0  0
 30 62  1  0  0  0  0
 30 63  1  0  0  0  0
 32 68  1  0  0  0  0
 32 69  1  0  0  0  0
 33 66  1  0  0  0  0
 33 67  1  0  0  0  0
 35 36  1  0  0  0  0
 35 70  1  0  0  0  0
 35 71  1  0  0  0  0
 36 72  1  0  0  0  0
 36 73  1  0  0  0  0
 37 38  2  0  0  0  0
 37 44  1  0  0  0  0
 38 40  1  0  0  0  0
 38 43  1  0  0  0  0
 39 41  1  0  0  0  0
 39 42  2  0  0  0  0
 40 42  1  0  0  0  0
 41 43  2  0  0  0  0
 42 74  1  0  0  0  0
 43 75  1  0  0  0  0
 44 45  2  0  0  0  0
 44 76  1  0  0  0  0
 45 77  1  0  0  0  0
 46 78  1  0  0  0  0
 46 79  1  0  0  0  0
 46 80  1  0  0  0  0
M  END
> <PUBCHEM_COMPOUND_CID>
42642645

> <PUBCHEM_COMPOUND_CANONICALIZED>
1

> <PUBCHEM_CACTVS_COMPLEXITY>
1010

> <PUBCHEM_CACTVS_HBOND_ACCEPTOR>
10

> <PUBCHEM_CACTVS_HBOND_DONOR>
2

> <PUBCHEM_CACTVS_ROTATABLE_BOND>
12

> <PUBCHEM_CACTVS_SUBSKEYS>
AAADcfB/uYAAAAAAAAAAAAAAGAAAAAAAAAA8eMECAAAAAACx9AAAHwAQAAAADgzhng4+xvPIFACoAzV3VACCiCAxIiAI2CE+7JgPJvrM8ZuHOCrm1Bna6Afw8L8OIEABAgACQABAgAIEAASAAAAAAAAAAA==

> <PUBCHEM_IUPAC_OPENEYE_NAME>
N1'-[3-fluoro-4-[[6-methoxy-7-(3-morpholinopropoxy)-4-quinolyl]oxy]phenyl]-N1-(4-fluorophenyl)cyclopropane-1,1-dicarboxamide

> <PUBCHEM_IUPAC_CAS_NAME>
N1'-[3-fluoro-4-[[6-methoxy-7-[3-(4-morpholinyl)propoxy]-4-quinolinyl]oxy]phenyl]-N1-(4-fluorophenyl)cyclopropane-1,1-dicarboxamide

> <PUBCHEM_IUPAC_NAME>
1-N'-[3-fluoro-4-[6-methoxy-7-(3-morpholin-4-ylpropoxy)quinolin-4-yl]oxyphenyl]-1-N-(4-fluorophenyl)cyclopropane-1,1-dicarboxamide

> <PUBCHEM_IUPAC_SYSTEMATIC_NAME>
N1'-[3-fluoranyl-4-[6-methoxy-7-(3-morpholin-4-ylpropoxy)quinolin-4-yl]oxy-phenyl]-N1-(4-fluorophenyl)cyclopropane-1,1-dicarboxamide

> <PUBCHEM_IUPAC_TRADITIONAL_NAME>
N'-[3-fluoro-4-[[6-methoxy-7-(3-morpholinopropoxy)-4-quinolyl]oxy]phenyl]-N-(4-fluorophenyl)cyclopropane-1,1-dicarboxamide

> <PUBCHEM_IUPAC_INCHI>
InChI=1S/C34H34F2N4O6/c1-43-30-20-25-27(21-31(30)45-16-2-13-40-14-17-44-18-15-40)37-12-9-28(25)46-29-8-7-24(19-26(29)36)39-33(42)34(10-11-34)32(41)38-23-5-3-22(35)4-6-23/h3-9,12,19-21H,2,10-11,13-18H2,1H3,(H,38,41)(H,39,42)

> <PUBCHEM_IUPAC_INCHIKEY>
CXQHYVUVSFXTMY-UHFFFAOYSA-N

> <PUBCHEM_XLOGP3_AA>
5.5

> <PUBCHEM_EXACT_MASS>
632.245

> <PUBCHEM_MOLECULAR_FORMULA>
C34H34F2N4O6

> <PUBCHEM_MOLECULAR_WEIGHT>
632.665

> <PUBCHEM_OPENEYE_CAN_SMILES>
COC1=CC2=C(C=CN=C2C=C1OCCCN3CCOCC3)OC4=C(C=C(C=C4)NC(=O)C5(CC5)C(=O)NC6=CC=C(C=C6)F)F

> <PUBCHEM_OPENEYE_ISO_SMILES>
COC1=CC2=C(C=CN=C2C=C1OCCCN3CCOCC3)OC4=C(C=C(C=C4)NC(=O)C5(CC5)C(=O)NC6=CC=C(C=C6)F)F

> <PUBCHEM_CACTVS_TPSA>
111

> <PUBCHEM_MONOISOTOPIC_WEIGHT>
632.245

> <PUBCHEM_TOTAL_CHARGE>
0

> <PUBCHEM_HEAVY_ATOM_COUNT>
46

> <PUBCHEM_ATOM_DEF_STEREO_COUNT>
0

> <PUBCHEM_ATOM_UDEF_STEREO_COUNT>
0

> <PUBCHEM_BOND_DEF_STEREO_COUNT>
0

> <PUBCHEM_BOND_UDEF_STEREO_COUNT>
0

> <PUBCHEM_ISOTOPIC_ATOM_COUNT>
0

> <PUBCHEM_COMPONENT_COUNT>
1

> <PUBCHEM_CACTVS_TAUTO_COUNT>
4

> <PUBCHEM_COORDINATE_TYPE>
1
5
255

> <PUBCHEM_BONDANNOTATIONS>
12  40  8
12  45  8
18  20  8
18  21  8
19  22  8
19  23  8
20  24  8
21  25  8
22  26  8
23  27  8
24  31  8
25  31  8
26  34  8
27  34  8
37  38  8
37  44  8
38  40  8
38  43  8
39  41  8
39  42  8
40  42  8
41  43  8
44  45  8

$$$$
9813758
  -OEChem-11021605012D

 36 38  0     0  0  0  0  0  0999 V2000
    3.5298    1.0254    0.0000 N   0  0  0  0  0  0  0  0  0  0  0  0
    5.2619    0.0254    0.0000 N   0  0  0  0  0  0  0  0  0  0  0  0
    4.3958   -1.4746    0.0000 N   0  0  0  0  0  0  0  0  0  0  0  0
    2.5836   -0.2794    0.0000 N   0  0  0  0  0  0  0  0  0  0  0  0
    6.1279   -3.4746    0.0000 N   0  0  0  0  0  0  0  0  0  0  0  0
    4.3958    1.5254    0.0000 C   0  0  0  0  0  0  0  0  0  0  0  0
    3.5298    0.0254    0.0000 C   0  0  0  0  0  0  0  0  0  0  0  0
    2.5836    1.3301    0.0000 C   0  0  0  0  0  0  0  0  0  0  0  0
    5.2619    1.0254    0.0000 C   0  0  0  0  0  0  0  0  0  0  0  0
    4.3958   -0.4746    0.0000 C   0  0  0  0  0  0  0  0  0  0  0  0
    4.3798    2.5669    0.0000 C   0  0  0  0  0  0  0  0  0  0  0  0
    2.0000    0.5254    0.0000 C   0  0  0  0  0  0  0  0  0  0  0  0
    5.2778    3.0946    0.0000 C   0  0  0  0  0  0  0  0  0  0  0  0
    6.1719    1.5322    0.0000 C   0  0  0  0  0  0  0  0  0  0  0  0
    5.2619   -1.9746    0.0000 C   0  0  0  0  0  0  0  0  0  0  0  0
    2.2729    2.2806    0.0000 C   0  0  0  0  0  0  0  0  0  0  0  0
    6.1799    2.5738    0.0000 C   0  0  0  0  0  0  0  0  0  0  0  0
    5.2619   -2.9746    0.0000 C   0  0  0  0  0  0  0  0  0  0  0  0
    5.2740    4.0946    0.0000 C   0  0  0  0  0  0  0  0  0  0  0  0
    3.8393    2.8706    0.0000 H   0  0  0  0  0  0  0  0  0  0  0  0
    1.3800    0.5254    0.0000 H   0  0  0  0  0  0  0  0  0  0  0  0
    3.8589   -1.7846    0.0000 H   0  0  0  0  0  0  0  0  0  0  0  0
    6.7052    1.2160    0.0000 H   0  0  0  0  0  0  0  0  0  0  0  0
    5.8725   -2.0823    0.0000 H   0  0  0  0  0  0  0  0  0  0  0  0
    5.4739   -1.3920    0.0000 H   0  0  0  0  0  0  0  0  0  0  0  0
    2.8623    2.4732    0.0000 H   0  0  0  0  0  0  0  0  0  0  0  0
    2.0803    2.8699    0.0000 H   0  0  0  0  0  0  0  0  0  0  0  0
    1.6836    2.0880    0.0000 H   0  0  0  0  0  0  0  0  0  0  0  0
    6.7180    2.8817    0.0000 H   0  0  0  0  0  0  0  0  0  0  0  0
    4.6513   -2.8670    0.0000 H   0  0  0  0  0  0  0  0  0  0  0  0
    5.0498   -3.5572    0.0000 H   0  0  0  0  0  0  0  0  0  0  0  0
    5.8940    4.0970    0.0000 H   0  0  0  0  0  0  0  0  0  0  0  0
    5.2716    4.7146    0.0000 H   0  0  0  0  0  0  0  0  0  0  0  0
    4.6540    4.0922    0.0000 H   0  0  0  0  0  0  0  0  0  0  0  0
    6.1279   -4.0946    0.0000 H   0  0  0  0  0  0  0  0  0  0  0  0
    6.6648   -3.1646    0.0000 H   0  0  0  0  0  0  0  0  0  0  0  0
  1  6  1  0  0  0  0
  1  7  1  0  0  0  0
  1  8  1  0  0  0  0
  2  9  1  0  0  0  0
  2 10  2  0  0  0  0
  3 10  1  0  0  0  0
  3 15  1  0  0  0  0
  3 22  1  0  0  0  0
  4  7  2  0  0  0  0
  4 12  1  0  0  0  0
  5 18  1  0  0  0  0
  5 35  1  0  0  0  0
  5 36  1  0  0  0  0
  6  9  2  0  0  0  0
  6 11  1  0  0  0  0
  7 10  1  0  0  0  0
  8 12  2  0  0  0  0
  8 16  1  0  0  0  0
  9 14  1  0  0  0  0
 11 13  2  0  0  0  0
 11 20  1  0  0  0  0
 12 21  1  0  0  0  0
 13 17  1  0  0  0  0
 13 19  1  0  0  0  0
 14 17  2  0  0  0  0
 14 23  1  0  0  0  0
 15 18  1  0  0  0  0
 15 24  1  0  0  0  0
 15 25  1  0  0  0  0
 16 26  1  0  0  0  0
 16 27  1  0  0  0  0
 16 28  1  0  0  0  0
 17 29  1  0  0  0  0
 18 30  1  0  0  0  0
 18 31  1  0  0  0  0
 19 32  1  0  0  0  0
 19 33  1  0  0  0  0
 19 34  1  0  0  0  0
M  END
> <PUBCHEM_COMPOUND_CID>
9813758

> <PUBCHEM_COMPOUND_CANONICALIZED>
1

> <PUBCHEM_CACTVS_COMPLEXITY>
310

> <PUBCHEM_CACTVS_HBOND_ACCEPTOR>
4

> <PUBCHEM_CACTVS_HBOND_DONOR>
2

> <PUBCHEM_CACTVS_ROTATABLE_BOND>
3

> <PUBCHEM_CACTVS_SUBSKEYS>
AAADceBzgAAAAAAAAAAAAAAAAAAAAWAAAAA8QAAAAAAAAFix8AAAHAAQAAAADAjBHwQ/8L/MGACgAzZnZACCgC0xEqAJ2KA4dJiIaOLAmZGUIAhokALIyCcQgAAOCAAAQAAAACAQAACAAAAAQAAAAAAAAA==

> <PUBCHEM_IUPAC_OPENEYE_NAME>
N'-(1,8-dimethylimidazo[1,2-a]quinoxalin-4-yl)ethane-1,2-diamine

> <PUBCHEM_IUPAC_CAS_NAME>
N'-(1,8-dimethyl-4-imidazo[1,2-a]quinoxalinyl)ethane-1,2-diamine

> <PUBCHEM_IUPAC_NAME>
N'-(1,8-dimethylimidazo[1,2-a]quinoxalin-4-yl)ethane-1,2-diamine

> <PUBCHEM_IUPAC_SYSTEMATIC_NAME>
N'-(1,8-dimethylimidazo[1,2-a]quinoxalin-4-yl)ethane-1,2-diamine

> <PUBCHEM_IUPAC_TRADITIONAL_NAME>
2-aminoethyl-(1,8-dimethylimidazo[1,2-a]quinoxalin-4-yl)amine

> <PUBCHEM_IUPAC_INCHI>
InChI=1S/C14H17N5/c1-9-3-4-11-12(7-9)19-10(2)8-17-14(19)13(18-11)16-6-5-15/h3-4,7-8H,5-6,15H2,1-2H3,(H,16,18)

> <PUBCHEM_IUPAC_INCHIKEY>
PSPFQEBFYXJZEV-UHFFFAOYSA-N

> <PUBCHEM_XLOGP3_AA>
2.3

> <PUBCHEM_EXACT_MASS>
255.148

> <PUBCHEM_MOLECULAR_FORMULA>
C14H17N5

> <PUBCHEM_MOLECULAR_WEIGHT>
255.325

> <PUBCHEM_OPENEYE_CAN_SMILES>
CC1=CC2=C(C=C1)N=C(C3=NC=C(N23)C)NCCN

> <PUBCHEM_OPENEYE_ISO_SMILES>
CC1=CC2=C(C=C1)N=C(C3=NC=C(N23)C)NCCN

> <PUBCHEM_CACTVS_TPSA>
68.2

> <PUBCHEM_MONOISOTOPIC_WEIGHT>
255.148

> <PUBCHEM_TOTAL_CHARGE>
0

> <PUBCHEM_HEAVY_ATOM_COUNT>
19

> <PUBCHEM_ATOM_DEF_STEREO_COUNT>
0

> <PUBCHEM_ATOM_UDEF_STEREO_COUNT>
0

> <PUBCHEM_BOND_DEF_STEREO_COUNT>
0

> <PUBCHEM_BOND_UDEF_STEREO_COUNT>
0

> <PUBCHEM_ISOTOPIC_ATOM_COUNT>
0

> <PUBCHEM_COMPONENT_COUNT>
1

> <PUBCHEM_CACTVS_TAUTO_COUNT>
5

> <PUBCHEM_COORDINATE_TYPE>
1
5
255

> <PUBCHEM_BONDANNOTATIONS>
1  6  8
1  7  8
1  8  8
11  13  8
13  17  8
14  17  8
2  10  8
2  9  8
4  12  8
4  7  8
6  11  8
6  9  8
7  10  8
8  12  8
9  14  8

$$$$
17755052
  -OEChem-11021605012D

 62 67  0     0  0  0  0  0  0999 V2000
   10.8600   -3.2990    0.0000 S   0  0  0  0  0  0  0  0  0  0  0  0
    7.2764    0.9698    0.0000 S   0  0  0  0  0  0  0  0  0  0  0  0
   11.7260   -2.7990    0.0000 O   0  0  0  0  0  0  0  0  0  0  0  0
    9.9939   -3.7990    0.0000 O   0  0  0  0  0  0  0  0  0  0  0  0
    5.4641    4.1651    0.0000 O   0  0  0  0  0  0  0  0  0  0  0  0
    9.3600   -0.7010    0.0000 N   0  0  0  0  0  0  0  0  0  0  0  0
   10.3600   -2.4330    0.0000 N   0  0  0  0  0  0  0  0  0  0  0  0
    5.4641    2.1651    0.0000 N   0  0  0  0  0  0  0  0  0  0  0  0
    4.5981    0.6651    0.0000 N   0  0  0  0  0  0  0  0  0  0  0  0
    5.4641   -0.8349    0.0000 N   0  0  0  0  0  0  0  0  0  0  0  0
    3.0752   -3.3068    0.0000 N   0  0  0  0  0  0  0  0  0  0  0  0
    4.0640   -3.4098    0.0000 N   0  0  0  0  0  0  0  0  0  0  0  0
    8.8600   -1.5670    0.0000 C   0  0  0  0  0  0  0  0  0  0  0  0
   10.3600   -0.7010    0.0000 C   0  0  0  0  0  0  0  0  0  0  0  0
   10.8600   -1.5670    0.0000 C   0  0  0  0  0  0  0  0  0  0  0  0
    9.3600   -2.4330    0.0000 C   0  0  0  0  0  0  0  0  0  0  0  0
    8.8600    0.1651    0.0000 C   0  0  0  0  0  0  0  0  0  0  0  0
    7.8600    0.1651    0.0000 C   0  0  0  0  0  0  0  0  0  0  0  0
    6.3301    0.6651    0.0000 C   0  0  0  0  0  0  0  0  0  0  0  0
    5.4641    1.1651    0.0000 C   0  0  0  0  0  0  0  0  0  0  0  0
    7.2764   -0.6397    0.0000 C   0  0  0  0  0  0  0  0  0  0  0  0
    6.3301   -0.3349    0.0000 C   0  0  0  0  0  0  0  0  0  0  0  0
   11.3600   -4.1651    0.0000 C   0  0  0  0  0  0  0  0  0  0  0  0
    4.5981    2.6651    0.0000 C   0  0  0  0  0  0  0  0  0  0  0  0
    6.3301    2.6651    0.0000 C   0  0  0  0  0  0  0  0  0  0  0  0
    6.3301    3.6651    0.0000 C   0  0  0  0  0  0  0  0  0  0  0  0
    4.5981    3.6651    0.0000 C   0  0  0  0  0  0  0  0  0  0  0  0
    4.5981   -0.3349    0.0000 C   0  0  0  0  0  0  0  0  0  0  0  0
    3.7320   -0.8349    0.0000 C   0  0  0  0  0  0  0  0  0  0  0  0
    3.7320   -1.8349    0.0000 C   0  0  0  0  0  0  0  0  0  0  0  0
    2.8660   -0.3349    0.0000 C   0  0  0  0  0  0  0  0  0  0  0  0
    2.8660   -2.3349    0.0000 C   0  0  0  0  0  0  0  0  0  0  0  0
    4.4691   -2.5020    0.0000 C   0  0  0  0  0  0  0  0  0  0  0  0
    2.0000   -0.8349    0.0000 C   0  0  0  0  0  0  0  0  0  0  0  0
    2.0000   -1.8349    0.0000 C   0  0  0  0  0  0  0  0  0  0  0  0
   10.9426   -0.4889    0.0000 H   0  0  0  0  0  0  0  0  0  0  0  0
   10.2523   -0.0904    0.0000 H   0  0  0  0  0  0  0  0  0  0  0  0
    8.3850   -1.1685    0.0000 H   0  0  0  0  0  0  0  0  0  0  0  0
    8.3850   -1.9655    0.0000 H   0  0  0  0  0  0  0  0  0  0  0  0
   11.3349   -1.9655    0.0000 H   0  0  0  0  0  0  0  0  0  0  0  0
   11.3349   -1.1685    0.0000 H   0  0  0  0  0  0  0  0  0  0  0  0
    8.7774   -2.6451    0.0000 H   0  0  0  0  0  0  0  0  0  0  0  0
    9.4676   -3.0436    0.0000 H   0  0  0  0  0  0  0  0  0  0  0  0
    9.4426    0.3771    0.0000 H   0  0  0  0  0  0  0  0  0  0  0  0
    8.7523    0.7756    0.0000 H   0  0  0  0  0  0  0  0  0  0  0  0
    7.4690   -1.2290    0.0000 H   0  0  0  0  0  0  0  0  0  0  0  0
   10.8230   -4.4751    0.0000 H   0  0  0  0  0  0  0  0  0  0  0  0
   11.6700   -4.7020    0.0000 H   0  0  0  0  0  0  0  0  0  0  0  0
   11.8969   -3.8551    0.0000 H   0  0  0  0  0  0  0  0  0  0  0  0
    6.5422    2.0824    0.0000 H   0  0  0  0  0  0  0  0  0  0  0  0
    6.9407    2.7727    0.0000 H   0  0  0  0  0  0  0  0  0  0  0  0
    3.9875    2.7727    0.0000 H   0  0  0  0  0  0  0  0  0  0  0  0
    4.3860    2.0824    0.0000 H   0  0  0  0  0  0  0  0  0  0  0  0
    6.9407    3.5574    0.0000 H   0  0  0  0  0  0  0  0  0  0  0  0
    6.5422    4.2477    0.0000 H   0  0  0  0  0  0  0  0  0  0  0  0
    4.3860    4.2477    0.0000 H   0  0  0  0  0  0  0  0  0  0  0  0
    3.9875    3.5574    0.0000 H   0  0  0  0  0  0  0  0  0  0  0  0
    2.8660    0.2851    0.0000 H   0  0  0  0  0  0  0  0  0  0  0  0
    5.0757   -2.3742    0.0000 H   0  0  0  0  0  0  0  0  0  0  0  0
    1.4631   -0.5249    0.0000 H   0  0  0  0  0  0  0  0  0  0  0  0
    1.4631   -2.1449    0.0000 H   0  0  0  0  0  0  0  0  0  0  0  0
    2.6612   -3.7682    0.0000 H   0  0  0  0  0  0  0  0  0  0  0  0
  1  3  2  0  0  0  0
  1  4  2  0  0  0  0
  1  7  1  0  0  0  0
  1 23  1  0  0  0  0
  2 18  1  0  0  0  0
  2 19  1  0  0  0  0
  5 26  1  0  0  0  0
  5 27  1  0  0  0  0
  6 13  1  0  0  0  0
  6 14  1  0  0  0  0
  6 17  1  0  0  0  0
  7 15  1  0  0  0  0
  7 16  1  0  0  0  0
  8 20  1  0  0  0  0
  8 24  1  0  0  0  0
  8 25  1  0  0  0  0
  9 20  2  0  0  0  0
  9 28  1  0  0  0  0
 10 22  1  0  0  0  0
 10 28  2  0  0  0  0
 11 12  1  0  0  0  0
 11 32  1  0  0  0  0
 11 62  1  0  0  0  0
 12 33  2  0  0  0  0
 13 16  1  0  0  0  0
 13 38  1  0  0  0  0
 13 39  1  0  0  0  0
 14 15  1  0  0  0  0
 14 36  1  0  0  0  0
 14 37  1  0  0  0  0
 15 40  1  0  0  0  0
 15 41  1  0  0  0  0
 16 42  1  0  0  0  0
 16 43  1  0  0  0  0
 17 18  1  0  0  0  0
 17 44  1  0  0  0  0
 17 45  1  0  0  0  0
 18 21  2  0  0  0  0
 19 20  1  0  0  0  0
 19 22  2  0  0  0  0
 21 22  1  0  0  0  0
 21 46  1  0  0  0  0
 23 47  1  0  0  0  0
 23 48  1  0  0  0  0
 23 49  1  0  0  0  0
 24 27  1  0  0  0  0
 24 52  1  0  0  0  0
 24 53  1  0  0  0  0
 25 26  1  0  0  0  0
 25 50  1  0  0  0  0
 25 51  1  0  0  0  0
 26 54  1  0  0  0  0
 26 55  1  0  0  0  0
 27 56  1  0  0  0  0
 27 57  1  0  0  0  0
 28 29  1  0  0  0  0
 29 30  2  0  0  0  0
 29 31  1  0  0  0  0
 30 32  1  0  0  0  0
 30 33  1  0  0  0  0
 31 34  2  0  0  0  0
 31 58  1  0  0  0  0
 32 35  2  0  0  0  0
 33 59  1  0  0  0  0
 34 35  1  0  0  0  0
 34 60  1  0  0  0  0
 35 61  1  0  0  0  0
M  END
> <PUBCHEM_COMPOUND_CID>
17755052

> <PUBCHEM_COMPOUND_CANONICALIZED>
1

> <PUBCHEM_CACTVS_COMPLEXITY>
832

> <PUBCHEM_CACTVS_HBOND_ACCEPTOR>
10

> <PUBCHEM_CACTVS_HBOND_DONOR>
1

> <PUBCHEM_CACTVS_ROTATABLE_BOND>
5

> <PUBCHEM_CACTVS_SUBSKEYS>
AAADceB7sABgAAAAAAAAAAAAAAAAAWJAAAA8WLEAAAAAAFgB/gAAHgQYQAAADAjh3wa/8fdrFAqmAzZnZHCTpKkhirBZuTw4ZJiKaKLg2dGXpAxomAL4yCcQgIAOgAAAQAASAAAAAACAACQAAAAAAAAAAA==

> <PUBCHEM_IUPAC_OPENEYE_NAME>
4-[2-(1H-indazol-4-yl)-6-[(4-methylsulfonylpiperazin-1-yl)methyl]thieno[3,2-d]pyrimidin-4-yl]morpholine

> <PUBCHEM_IUPAC_CAS_NAME>
4-[2-(1H-indazol-4-yl)-6-[(4-methylsulfonyl-1-piperazinyl)methyl]-4-thieno[3,2-d]pyrimidinyl]morpholine

> <PUBCHEM_IUPAC_NAME>
4-[2-(1H-indazol-4-yl)-6-[(4-methylsulfonylpiperazin-1-yl)methyl]thieno[3,2-d]pyrimidin-4-yl]morpholine

> <PUBCHEM_IUPAC_SYSTEMATIC_NAME>
4-[2-(1H-indazol-4-yl)-6-[(4-methylsulfonylpiperazin-1-yl)methyl]thieno[3,2-d]pyrimidin-4-yl]morpholine

> <PUBCHEM_IUPAC_TRADITIONAL_NAME>
4-[2-(1H-indazol-4-yl)-6-[(4-mesylpiperazino)methyl]thieno[3,2-d]pyrimidin-4-yl]morpholine

> <PUBCHEM_IUPAC_INCHI>
InChI=1S/C23H27N7O3S2/c1-35(31,32)30-7-5-28(6-8-30)15-16-13-20-21(34-16)23(29-9-11-33-12-10-29)26-22(25-20)17-3-2-4-19-18(17)14-24-27-19/h2-4,13-14H,5-12,15H2,1H3,(H,24,27)

> <PUBCHEM_IUPAC_INCHIKEY>
LHNIIDJUOCFXAP-UHFFFAOYSA-N

> <PUBCHEM_XLOGP3_AA>
1.6

> <PUBCHEM_EXACT_MASS>
513.162

> <PUBCHEM_MOLECULAR_FORMULA>
C23H27N7O3S2

> <PUBCHEM_MOLECULAR_WEIGHT>
513.635

> <PUBCHEM_OPENEYE_CAN_SMILES>
CS(=O)(=O)N1CCN(CC1)CC2=CC3=C(S2)C(=NC(=N3)C4=C5C=NNC5=CC=C4)N6CCOCC6

> <PUBCHEM_OPENEYE_ISO_SMILES>
CS(=O)(=O)N1CCN(CC1)CC2=CC3=C(S2)C(=NC(=N3)C4=C5C=NNC5=CC=C4)N6CCOCC6

> <PUBCHEM_CACTVS_TPSA>
144

> <PUBCHEM_MONOISOTOPIC_WEIGHT>
513.162

> <PUBCHEM_TOTAL_CHARGE>
0

> <PUBCHEM_HEAVY_ATOM_COUNT>
35

> <PUBCHEM_ATOM_DEF_STEREO_COUNT>
0

> <PUBCHEM_ATOM_UDEF_STEREO_COUNT>
0

> <PUBCHEM_BOND_DEF_STEREO_COUNT>
0

> <PUBCHEM_BOND_UDEF_STEREO_COUNT>
0

> <PUBCHEM_ISOTOPIC_ATOM_COUNT>
0

> <PUBCHEM_COMPONENT_COUNT>
1

> <PUBCHEM_CACTVS_TAUTO_COUNT>
5

> <PUBCHEM_COORDINATE_TYPE>
1
5
255

> <PUBCHEM_BONDANNOTATIONS>
10  22  8
10  28  8
11  12  8
11  32  8
12  33  8
18  21  8
19  20  8
19  22  8
2  18  8
2  19  8
21  22  8
29  30  8
29  31  8
30  32  8
30  33  8
31  34  8
32  35  8
34  35  8
9  20  8
9  28  8

$$$$
9929127
  -OEChem-11021605012D

 41 44  0     0  0  0  0  0  0999 V2000
    7.3991   -3.2713    0.0000 Cl  0  0  0  0  0  0  0  0  0  0  0  0
    8.0321   -1.3232    0.0000 O   0  0  0  0  0  0  0  0  0  0  0  0
    8.3031   -0.3278    0.0000 O   0  0  0  0  0  0  0  0  0  0  0  0
    4.5274   -0.4107    0.0000 N   0  0  0  0  0  0  0  0  0  0  0  0
    6.6498    0.1884    0.0000 N   0  0  0  0  0  0  0  0  0  0  0  0
    2.0000   -1.5349    0.0000 N   0  0  0  0  0  0  0  0  0  0  0  0
    7.5438    3.0521    0.0000 N   0  0  0  0  0  0  0  0  0  0  0  0
    5.3364   -0.9985    0.0000 C   0  0  0  0  0  0  0  0  0  0  0  0
    5.0274   -1.9495    0.0000 C   0  0  0  0  0  0  0  0  0  0  0  0
    4.0274   -1.9495    0.0000 C   0  0  0  0  0  0  0  0  0  0  0  0
    3.7183   -0.9985    0.0000 C   0  0  0  0  0  0  0  0  0  0  0  0
    6.3518   -0.7662    0.0000 C   0  0  0  0  0  0  0  0  0  0  0  0
    5.7123   -2.7342    0.0000 C   0  0  0  0  0  0  0  0  0  0  0  0
    7.0547   -1.5349    0.0000 C   0  0  0  0  0  0  0  0  0  0  0  0
    6.7328   -2.5256    0.0000 C   0  0  0  0  0  0  0  0  0  0  0  0
    3.3424   -2.7342    0.0000 C   0  0  0  0  0  0  0  0  0  0  0  0
    2.7029   -0.7662    0.0000 C   0  0  0  0  0  0  0  0  0  0  0  0
    2.3219   -2.5256    0.0000 C   0  0  0  0  0  0  0  0  0  0  0  0
    7.6255    0.4076    0.0000 C   0  0  0  0  0  0  0  0  0  0  0  0
    7.9235    1.3621    0.0000 C   0  0  0  0  0  0  0  0  0  0  0  0
    7.2458    2.0975    0.0000 C   0  0  0  0  0  0  0  0  0  0  0  0
    8.8991    1.5813    0.0000 C   0  0  0  0  0  0  0  0  0  0  0  0
    8.7040   -2.0638    0.0000 C   0  0  0  0  0  0  0  0  0  0  0  0
    6.2701    1.8783    0.0000 C   0  0  0  0  0  0  0  0  0  0  0  0
    9.1971    2.5359    0.0000 C   0  0  0  0  0  0  0  0  0  0  0  0
    8.5195    3.2713    0.0000 C   0  0  0  0  0  0  0  0  0  0  0  0
    4.5274    0.2093    0.0000 H   0  0  0  0  0  0  0  0  0  0  0  0
    5.5139   -3.3216    0.0000 H   0  0  0  0  0  0  0  0  0  0  0  0
    3.5408   -3.3216    0.0000 H   0  0  0  0  0  0  0  0  0  0  0  0
    6.2296    0.6443    0.0000 H   0  0  0  0  0  0  0  0  0  0  0  0
    2.5182   -0.1744    0.0000 H   0  0  0  0  0  0  0  0  0  0  0  0
    1.9088   -2.9879    0.0000 H   0  0  0  0  0  0  0  0  0  0  0  0
    9.3193    1.1254    0.0000 H   0  0  0  0  0  0  0  0  0  0  0  0
    8.2449   -2.4804    0.0000 H   0  0  0  0  0  0  0  0  0  0  0  0
    9.1207   -2.5229    0.0000 H   0  0  0  0  0  0  0  0  0  0  0  0
    9.1632   -1.6471    0.0000 H   0  0  0  0  0  0  0  0  0  0  0  0
    6.1342    2.4832    0.0000 H   0  0  0  0  0  0  0  0  0  0  0  0
    5.6652    1.7424    0.0000 H   0  0  0  0  0  0  0  0  0  0  0  0
    6.4060    1.2734    0.0000 H   0  0  0  0  0  0  0  0  0  0  0  0
    9.8021    2.6718    0.0000 H   0  0  0  0  0  0  0  0  0  0  0  0
    8.7042    3.8631    0.0000 H   0  0  0  0  0  0  0  0  0  0  0  0
  1 15  1  0  0  0  0
  2 14  1  0  0  0  0
  2 23  1  0  0  0  0
  3 19  2  0  0  0  0
  4  8  1  0  0  0  0
  4 11  1  0  0  0  0
  4 27  1  0  0  0  0
  5 12  1  0  0  0  0
  5 19  1  0  0  0  0
  5 30  1  0  0  0  0
  6 17  2  0  0  0  0
  6 18  1  0  0  0  0
  7 21  1  0  0  0  0
  7 26  2  0  0  0  0
  8  9  1  0  0  0  0
  8 12  2  0  0  0  0
  9 10  1  0  0  0  0
  9 13  2  0  0  0  0
 10 11  2  0  0  0  0
 10 16  1  0  0  0  0
 11 17  1  0  0  0  0
 12 14  1  0  0  0  0
 13 15  1  0  0  0  0
 13 28  1  0  0  0  0
 14 15  2  0  0  0  0
 16 18  2  0  0  0  0
 16 29  1  0  0  0  0
 17 31  1  0  0  0  0
 18 32  1  0  0  0  0
 19 20  1  0  0  0  0
 20 21  2  0  0  0  0
 20 22  1  0  0  0  0
 21 24  1  0  0  0  0
 22 25  2  0  0  0  0
 22 33  1  0  0  0  0
 23 34  1  0  0  0  0
 23 35  1  0  0  0  0
 23 36  1  0  0  0  0
 24 37  1  0  0  0  0
 24 38  1  0  0  0  0
 24 39  1  0  0  0  0
 25 26  1  0  0  0  0
 25 40  1  0  0  0  0
 26 41  1  0  0  0  0
M  END
> <PUBCHEM_COMPOUND_CID>
9929127

> <PUBCHEM_COMPOUND_CANONICALIZED>
1

> <PUBCHEM_CACTVS_COMPLEXITY>
522

> <PUBCHEM_CACTVS_HBOND_ACCEPTOR>
4

> <PUBCHEM_CACTVS_HBOND_DONOR>
2

> <PUBCHEM_CACTVS_ROTATABLE_BOND>
3

> <PUBCHEM_CACTVS_SUBSKEYS>
AAADccB7sAAEAAAAAAAAAAAAAAAAAWAAAAA8WIAAAAAAAFgB/gAAHgIQAAAADA7BniY+xvLJlACoAzV3VACCiCQ1N2AI2SE9f9gOZvvF95uVMahm1BnY6ceY0fMOoABAYgICGCBAAIDEBAQwQAAAAAAAAA==

> <PUBCHEM_IUPAC_OPENEYE_NAME>
N-(6-chloro-7-methoxy-9H-pyrido[3,4-b]indol-8-yl)-2-methyl-pyridine-3-carboxamide

> <PUBCHEM_IUPAC_CAS_NAME>
N-(6-chloro-7-methoxy-9H-pyrido[3,4-b]indol-8-yl)-2-methyl-3-pyridinecarboxamide

> <PUBCHEM_IUPAC_NAME>
N-(6-chloro-7-methoxy-9H-pyrido[3,4-b]indol-8-yl)-2-methylpyridine-3-carboxamide

> <PUBCHEM_IUPAC_SYSTEMATIC_NAME>
N-(6-chloranyl-7-methoxy-9H-pyrido[3,4-b]indol-8-yl)-2-methyl-pyridine-3-carboxamide

> <PUBCHEM_IUPAC_TRADITIONAL_NAME>
N-(6-chloro-7-methoxy-9H-$b-carbolin-8-yl)-2-methyl-nicotinamide

> <PUBCHEM_IUPAC_INCHI>
InChI=1S/C19H15ClN4O2/c1-10-11(4-3-6-22-10)19(25)24-17-16-13(8-14(20)18(17)26-2)12-5-7-21-9-15(12)23-16/h3-9,23H,1-2H3,(H,24,25)

> <PUBCHEM_IUPAC_INCHIKEY>
ZNOLRTPMNMPLHY-UHFFFAOYSA-N

> <PUBCHEM_XLOGP3_AA>
3.1

> <PUBCHEM_EXACT_MASS>
366.088

> <PUBCHEM_MOLECULAR_FORMULA>
C19H15ClN4O2

> <PUBCHEM_MOLECULAR_WEIGHT>
366.805

> <PUBCHEM_OPENEYE_CAN_SMILES>
CC1=C(C=CC=N1)C(=O)NC2=C3C(=CC(=C2OC)Cl)C4=C(N3)C=NC=C4

> <PUBCHEM_OPENEYE_ISO_SMILES>
CC1=C(C=CC=N1)C(=O)NC2=C3C(=CC(=C2OC)Cl)C4=C(N3)C=NC=C4

> <PUBCHEM_CACTVS_TPSA>
79.9

> <PUBCHEM_MONOISOTOPIC_WEIGHT>
366.088

> <PUBCHEM_TOTAL_CHARGE>
0

> <PUBCHEM_HEAVY_ATOM_COUNT>
26

> <PUBCHEM_ATOM_DEF_STEREO_COUNT>
0

> <PUBCHEM_ATOM_UDEF_STEREO_COUNT>
0

> <PUBCHEM_BOND_DEF_STEREO_COUNT>
0

> <PUBCHEM_BOND_UDEF_STEREO_COUNT>
0

> <PUBCHEM_ISOTOPIC_ATOM_COUNT>
0

> <PUBCHEM_COMPONENT_COUNT>
1

> <PUBCHEM_CACTVS_TAUTO_COUNT>
4

> <PUBCHEM_COORDINATE_TYPE>
1
5
255

> <PUBCHEM_BONDANNOTATIONS>
10  11  8
10  16  8
11  17  8
12  14  8
13  15  8
14  15  8
16  18  8
20  21  8
20  22  8
22  25  8
25  26  8
4  11  8
4  8  8
6  17  8
6  18  8
7  21  8
7  26  8
8  12  8
8  9  8
9  10  8
9  13  8

$$$$
10461815
  -OEChem-11021605012D

 77 82  0     1  0  0  0  0  0999 V2000
    2.8660   -0.2313    0.0000 Cl  0  0  0  0  0  0  0  0  0  0  0  0
    4.5981   -3.2313    0.0000 Cl  0  0  0  0  0  0  0  0  0  0  0  0
    5.4641   -1.7313    0.0000 S   0  0  0  0  0  0  0  0  0  0  0  0
   12.0633    1.7303    0.0000 O   0  0  0  0  0  0  0  0  0  0  0  0
   10.5920   -2.7313    0.0000 O   0  0  0  0  0  0  0  0  0  0  0  0
    4.9641   -2.5974    0.0000 O   0  0  0  0  0  0  0  0  0  0  0  0
    5.9641   -0.8653    0.0000 O   0  0  0  0  0  0  0  0  0  0  0  0
   13.3484    0.5691    0.0000 N   0  0  0  0  0  0  0  0  0  0  0  0
   14.8000    2.8180    0.0000 N   0  0  0  0  0  0  0  0  0  0  0  0
   11.0396   -1.4403    0.0000 N   0  0  0  0  0  0  0  0  0  0  0  0
    9.0084   -3.5361    0.0000 N   0  0  0  0  0  0  0  0  0  0  0  0
   14.0927    1.2369    0.0000 C   0  0  1  0  0  0  0  0  0  0  0  0
   13.9899    2.2316    0.0000 C   0  0  0  0  0  0  0  0  0  0  0  0
   14.9579    0.7354    0.0000 C   0  0  0  0  0  0  0  0  0  0  0  0
   14.7483   -0.2423    0.0000 C   0  0  0  0  0  0  0  0  0  0  0  0
   13.7536   -0.3451    0.0000 C   0  0  0  0  0  0  0  0  0  0  0  0
   14.8017    3.8180    0.0000 C   0  0  0  0  0  0  0  0  0  0  0  0
   15.7505    2.5074    0.0000 C   0  0  0  0  0  0  0  0  0  0  0  0
   15.7533    4.1254    0.0000 C   0  0  0  0  0  0  0  0  0  0  0  0
   16.3397    3.3154    0.0000 C   0  0  0  0  0  0  0  0  0  0  0  0
   12.3706    0.7787    0.0000 C   0  0  0  0  0  0  0  0  0  0  0  0
   11.7002    0.0367    0.0000 C   0  0  0  0  0  0  0  0  0  0  0  0
   10.7059    0.1430    0.0000 C   0  0  0  0  0  0  0  0  0  0  0  0
   11.9064   -0.9418    0.0000 C   0  0  0  0  0  0  0  0  0  0  0  0
   10.2976   -0.7699    0.0000 C   0  0  0  0  0  0  0  0  0  0  0  0
   10.2074    1.0099    0.0000 C   0  0  0  0  0  0  0  0  0  0  0  0
   12.8193   -1.3501    0.0000 C   0  0  0  0  0  0  0  0  0  0  0  0
    9.3191   -0.9761    0.0000 C   0  0  0  0  0  0  0  0  0  0  0  0
    9.0084   -1.9266    0.0000 C   0  0  0  0  0  0  0  0  0  0  0  0
    8.0622   -2.2313    0.0000 C   0  0  0  0  0  0  0  0  0  0  0  0
    8.0622   -3.2313    0.0000 C   0  0  0  0  0  0  0  0  0  0  0  0
    9.5920   -2.7313    0.0000 C   0  0  0  0  0  0  0  0  0  0  0  0
    7.1962   -1.7313    0.0000 C   0  0  0  0  0  0  0  0  0  0  0  0
    6.3301   -2.2313    0.0000 C   0  0  0  0  0  0  0  0  0  0  0  0
    7.1962   -3.7313    0.0000 C   0  0  0  0  0  0  0  0  0  0  0  0
    6.3301   -3.2313    0.0000 C   0  0  0  0  0  0  0  0  0  0  0  0
    4.5981   -1.2313    0.0000 C   0  0  0  0  0  0  0  0  0  0  0  0
    3.7320   -1.7313    0.0000 C   0  0  0  0  0  0  0  0  0  0  0  0
    2.8660   -1.2313    0.0000 C   0  0  0  0  0  0  0  0  0  0  0  0
    3.7320   -2.7313    0.0000 C   0  0  0  0  0  0  0  0  0  0  0  0
    2.0000   -1.7313    0.0000 C   0  0  0  0  0  0  0  0  0  0  0  0
    2.8660   -3.2313    0.0000 C   0  0  0  0  0  0  0  0  0  0  0  0
    2.0000   -2.7313    0.0000 C   0  0  0  0  0  0  0  0  0  0  0  0
   13.5143    1.4601    0.0000 H   0  0  0  0  0  0  0  0  0  0  0  0
   13.7191    2.7894    0.0000 H   0  0  0  0  0  0  0  0  0  0  0  0
   13.3936    2.0618    0.0000 H   0  0  0  0  0  0  0  0  0  0  0  0
   15.5472    0.5428    0.0000 H   0  0  0  0  0  0  0  0  0  0  0  0
   15.2110    1.3014    0.0000 H   0  0  0  0  0  0  0  0  0  0  0  0
   14.7472   -0.8623    0.0000 H   0  0  0  0  0  0  0  0  0  0  0  0
   15.3648   -0.3082    0.0000 H   0  0  0  0  0  0  0  0  0  0  0  0
   13.1636   -0.5357    0.0000 H   0  0  0  0  0  0  0  0  0  0  0  0
   13.8814   -0.9518    0.0000 H   0  0  0  0  0  0  0  0  0  0  0  0
   15.4973    1.9414    0.0000 H   0  0  0  0  0  0  0  0  0  0  0  0
   16.2869    2.1964    0.0000 H   0  0  0  0  0  0  0  0  0  0  0  0
   14.6738    4.4247    0.0000 H   0  0  0  0  0  0  0  0  0  0  0  0
   14.1850    3.7543    0.0000 H   0  0  0  0  0  0  0  0  0  0  0  0
   16.7997    2.8997    0.0000 H   0  0  0  0  0  0  0  0  0  0  0  0
   16.8011    3.7294    0.0000 H   0  0  0  0  0  0  0  0  0  0  0  0
   16.2907    4.4345    0.0000 H   0  0  0  0  0  0  0  0  0  0  0  0
   15.5021    4.6922    0.0000 H   0  0  0  0  0  0  0  0  0  0  0  0
   10.9737   -2.0568    0.0000 H   0  0  0  0  0  0  0  0  0  0  0  0
   10.7449    1.3189    0.0000 H   0  0  0  0  0  0  0  0  0  0  0  0
    9.8983    1.5473    0.0000 H   0  0  0  0  0  0  0  0  0  0  0  0
    9.6699    0.7008    0.0000 H   0  0  0  0  0  0  0  0  0  0  0  0
   12.5661   -1.9161    0.0000 H   0  0  0  0  0  0  0  0  0  0  0  0
   13.3852   -1.6033    0.0000 H   0  0  0  0  0  0  0  0  0  0  0  0
   13.0724   -0.7841    0.0000 H   0  0  0  0  0  0  0  0  0  0  0  0
    8.9050   -0.5146    0.0000 H   0  0  0  0  0  0  0  0  0  0  0  0
    7.1962   -1.1113    0.0000 H   0  0  0  0  0  0  0  0  0  0  0  0
    9.2010   -4.1254    0.0000 H   0  0  0  0  0  0  0  0  0  0  0  0
    7.1962   -4.3513    0.0000 H   0  0  0  0  0  0  0  0  0  0  0  0
    5.7932   -3.5413    0.0000 H   0  0  0  0  0  0  0  0  0  0  0  0
    4.9966   -0.7564    0.0000 H   0  0  0  0  0  0  0  0  0  0  0  0
    4.1996   -0.7564    0.0000 H   0  0  0  0  0  0  0  0  0  0  0  0
    1.4631   -1.4213    0.0000 H   0  0  0  0  0  0  0  0  0  0  0  0
    2.8660   -3.8513    0.0000 H   0  0  0  0  0  0  0  0  0  0  0  0
    1.4631   -3.0413    0.0000 H   0  0  0  0  0  0  0  0  0  0  0  0
  1 39  1  0  0  0  0
  2 40  1  0  0  0  0
  3  6  2  0  0  0  0
  3  7  2  0  0  0  0
  3 34  1  0  0  0  0
  3 37  1  0  0  0  0
  4 21  2  0  0  0  0
  5 32  2  0  0  0  0
  8 12  1  0  0  0  0
  8 16  1  0  0  0  0
  8 21  1  0  0  0  0
  9 13  1  0  0  0  0
  9 17  1  0  0  0  0
  9 18  1  0  0  0  0
 10 24  1  0  0  0  0
 10 25  1  0  0  0  0
 10 61  1  0  0  0  0
 11 31  1  0  0  0  0
 11 32  1  0  0  0  0
 11 70  1  0  0  0  0
 12 13  1  1  0  0  0
 12 14  1  0  0  0  0
 12 44  1  0  0  0  0
 13 45  1  0  0  0  0
 13 46  1  0  0  0  0
 14 15  1  0  0  0  0
 14 47  1  0  0  0  0
 14 48  1  0  0  0  0
 15 16  1  0  0  0  0
 15 49  1  0  0  0  0
 15 50  1  0  0  0  0
 16 51  1  0  0  0  0
 16 52  1  0  0  0  0
 17 19  1  0  0  0  0
 17 55  1  0  0  0  0
 17 56  1  0  0  0  0
 18 20  1  0  0  0  0
 18 53  1  0  0  0  0
 18 54  1  0  0  0  0
 19 20  1  0  0  0  0
 19 59  1  0  0  0  0
 19 60  1  0  0  0  0
 20 57  1  0  0  0  0
 20 58  1  0  0  0  0
 21 22  1  0  0  0  0
 22 23  1  0  0  0  0
 22 24  2  0  0  0  0
 23 25  2  0  0  0  0
 23 26  1  0  0  0  0
 24 27  1  0  0  0  0
 25 28  1  0  0  0  0
 26 62  1  0  0  0  0
 26 63  1  0  0  0  0
 26 64  1  0  0  0  0
 27 65  1  0  0  0  0
 27 66  1  0  0  0  0
 27 67  1  0  0  0  0
 28 29  2  0  0  0  0
 28 68  1  0  0  0  0
 29 30  1  0  0  0  0
 29 32  1  0  0  0  0
 30 31  2  0  0  0  0
 30 33  1  0  0  0  0
 31 35  1  0  0  0  0
 33 34  2  0  0  0  0
 33 69  1  0  0  0  0
 34 36  1  0  0  0  0
 35 36  2  0  0  0  0
 35 71  1  0  0  0  0
 36 72  1  0  0  0  0
 37 38  1  0  0  0  0
 37 73  1  0  0  0  0
 37 74  1  0  0  0  0
 38 39  2  0  0  0  0
 38 40  1  0  0  0  0
 39 41  1  0  0  0  0
 40 42  2  0  0  0  0
 41 43  2  0  0  0  0
 41 75  1  0  0  0  0
 42 43  1  0  0  0  0
 42 76  1  0  0  0  0
 43 77  1  0  0  0  0
M  END
> <PUBCHEM_COMPOUND_CID>
10461815

> <PUBCHEM_COMPOUND_CANONICALIZED>
1

> <PUBCHEM_CACTVS_COMPLEXITY>
1180

> <PUBCHEM_CACTVS_HBOND_ACCEPTOR>
5

> <PUBCHEM_CACTVS_HBOND_DONOR>
2

> <PUBCHEM_CACTVS_ROTATABLE_BOND>
7

> <PUBCHEM_CACTVS_SUBSKEYS>
AAADcfB/uABGAAAAAAAAAAAAAAAAAWLFiwAwYAAAAAAAAFgB0AAAHgYQAAAADCrF3iSywZPJkAqoAyVyVHDCgCAlDzAImTk4ZtgIYHrh15GUIYhglgDoyccciICOgAQAgACDAAAACAEAAQYAAAAAAAAAAA==

> <PUBCHEM_IUPAC_OPENEYE_NAME>
(3Z)-5-[(2,6-dichlorophenyl)methylsulfonyl]-3-[[3,5-dimethyl-4-[(2R)-2-(pyrrolidin-1-ylmethyl)pyrrolidine-1-carbonyl]-1H-pyrrol-2-yl]methylene]indolin-2-one

> <PUBCHEM_IUPAC_CAS_NAME>
(3Z)-5-[(2,6-dichlorophenyl)methylsulfonyl]-3-[[3,5-dimethyl-4-[oxo-[(2R)-2-(1-pyrrolidinylmethyl)-1-pyrrolidinyl]methyl]-1H-pyrrol-2-yl]methylidene]-1H-indol-2-one

> <PUBCHEM_IUPAC_NAME>
(3Z)-5-[(2,6-dichlorophenyl)methylsulfonyl]-3-[[3,5-dimethyl-4-[(2R)-2-(pyrrolidin-1-ylmethyl)pyrrolidine-1-carbonyl]-1H-pyrrol-2-yl]methylidene]-1H-indol-2-one

> <PUBCHEM_IUPAC_SYSTEMATIC_NAME>
(3Z)-5-[[2,6-bis(chloranyl)phenyl]methylsulfonyl]-3-[[3,5-dimethyl-4-[(2R)-2-(pyrrolidin-1-ylmethyl)pyrrolidin-1-yl]carbonyl-1H-pyrrol-2-yl]methylidene]-1H-indol-2-one

> <PUBCHEM_IUPAC_TRADITIONAL_NAME>
(3Z)-5-(2,6-dichlorobenzyl)sulfonyl-3-[[3,5-dimethyl-4-[(2R)-2-(pyrrolidinomethyl)pyrrolidine-1-carbonyl]-1H-pyrrol-2-yl]methylene]oxindole

> <PUBCHEM_IUPAC_INCHI>
InChI=1S/C32H34Cl2N4O4S/c1-19-29(35-20(2)30(19)32(40)38-14-6-7-21(38)17-37-12-3-4-13-37)16-24-23-15-22(10-11-28(23)36-31(24)39)43(41,42)18-25-26(33)8-5-9-27(25)34/h5,8-11,15-16,21,35H,3-4,6-7,12-14,17-18H2,1-2H3,(H,36,39)/b24-16-/t21-/m1/s1

> <PUBCHEM_IUPAC_INCHIKEY>
OYONTEXKYJZFHA-SSHUPFPWSA-N

> <PUBCHEM_XLOGP3_AA>
5

> <PUBCHEM_EXACT_MASS>
640.168

> <PUBCHEM_MOLECULAR_FORMULA>
C32H34Cl2N4O4S

> <PUBCHEM_MOLECULAR_WEIGHT>
641.608

> <PUBCHEM_OPENEYE_CAN_SMILES>
CC1=C(NC(=C1C(=O)N2CCCC2CN3CCCC3)C)C=C4C5=C(C=CC(=C5)S(=O)(=O)CC6=C(C=CC=C6Cl)Cl)NC4=O

> <PUBCHEM_OPENEYE_ISO_SMILES>
CC1=C(NC(=C1C(=O)N2CCC[C@@H]2CN3CCCC3)C)/C=C\4/C5=C(C=CC(=C5)S(=O)(=O)CC6=C(C=CC=C6Cl)Cl)NC4=O

> <PUBCHEM_CACTVS_TPSA>
111

> <PUBCHEM_MONOISOTOPIC_WEIGHT>
640.168

> <PUBCHEM_TOTAL_CHARGE>
0

> <PUBCHEM_HEAVY_ATOM_COUNT>
43

> <PUBCHEM_ATOM_DEF_STEREO_COUNT>
1

> <PUBCHEM_ATOM_UDEF_STEREO_COUNT>
0

> <PUBCHEM_BOND_DEF_STEREO_COUNT>
1

> <PUBCHEM_BOND_UDEF_STEREO_COUNT>
0

> <PUBCHEM_ISOTOPIC_ATOM_COUNT>
0

> <PUBCHEM_COMPONENT_COUNT>
1

> <PUBCHEM_CACTVS_TAUTO_COUNT>
30

> <PUBCHEM_COORDINATE_TYPE>
1
5
255

> <PUBCHEM_BONDANNOTATIONS>
10  24  8
10  25  8
12  13  5
22  23  8
22  24  8
23  25  8
30  31  8
30  33  8
31  35  8
33  34  8
34  36  8
35  36  8
38  39  8
38  40  8
39  41  8
40  42  8
41  43  8
42  43  8

$$$$
11364421
  -OEChem-11021605012D

 77 81  0     1  0  0  0  0  0999 V2000
    2.8660    1.5432    0.0000 O   0  0  0  0  0  0  0  0  0  0  0  0
   11.6038    2.5057    0.0000 O   0  0  0  0  0  0  0  0  0  0  0  0
    9.8564   -1.4876    0.0000 O   0  0  0  0  0  0  0  0  0  0  0  0
    4.5981   -0.4568    0.0000 N   0  0  0  0  0  0  0  0  0  0  0  0
    4.5981    1.5432    0.0000 N   0  0  0  0  0  0  0  0  0  0  0  0
    6.3580   -0.4915    0.0000 N   0  0  0  0  0  0  0  0  0  0  0  0
   15.0679    2.4923    0.0000 N   0  0  0  0  0  0  0  0  0  0  0  0
   12.4641    1.0023    0.0000 N   0  0  0  0  0  0  0  0  0  0  0  0
    7.2641    1.0640    0.0000 N   0  0  0  0  0  0  0  0  0  0  0  0
    8.1282   -0.4810    0.0000 N   0  0  0  0  0  0  0  0  0  0  0  0
    4.5981   -1.4568    0.0000 C   0  0  0  0  0  0  0  0  0  0  0  0
    3.7891   -2.0446    0.0000 C   0  0  0  0  0  0  0  0  0  0  0  0
    5.4071   -2.0446    0.0000 C   0  0  0  0  0  0  0  0  0  0  0  0
    4.0981   -2.9956    0.0000 C   0  0  0  0  0  0  0  0  0  0  0  0
    5.0981   -2.9956    0.0000 C   0  0  0  0  0  0  0  0  0  0  0  0
    3.7320    0.0432    0.0000 C   0  0  2  0  0  0  0  0  0  0  0  0
    5.4641    0.0432    0.0000 C   0  0  0  0  0  0  0  0  0  0  0  0
    2.8660   -0.4568    0.0000 C   0  0  0  0  0  0  0  0  0  0  0  0
    3.7320    1.0432    0.0000 C   0  0  0  0  0  0  0  0  0  0  0  0
    5.4641    1.0432    0.0000 C   0  0  0  0  0  0  0  0  0  0  0  0
   13.3320    1.4990    0.0000 C   0  0  0  0  0  0  0  0  0  0  0  0
    2.0000    0.0432    0.0000 C   0  0  0  0  0  0  0  0  0  0  0  0
   13.3359    2.4990    0.0000 C   0  0  0  0  0  0  0  0  0  0  0  0
   14.1961    0.9957    0.0000 C   0  0  0  0  0  0  0  0  0  0  0  0
   14.2038    2.9956    0.0000 C   0  0  0  0  0  0  0  0  0  0  0  0
   15.0641    1.4923    0.0000 C   0  0  0  0  0  0  0  0  0  0  0  0
    6.3580    1.5778    0.0000 C   0  0  0  0  0  0  0  0  0  0  0  0
    4.5981    2.5432    0.0000 C   0  0  0  0  0  0  0  0  0  0  0  0
    7.2641    0.0224    0.0000 C   0  0  0  0  0  0  0  0  0  0  0  0
   15.9359    2.9890    0.0000 C   0  0  0  0  0  0  0  0  0  0  0  0
   11.6000    1.5057    0.0000 C   0  0  0  0  0  0  0  0  0  0  0  0
    8.9962    0.0157    0.0000 C   0  0  0  0  0  0  0  0  0  0  0  0
   10.7320    1.0090    0.0000 C   0  0  0  0  0  0  0  0  0  0  0  0
    9.8602   -0.4876    0.0000 C   0  0  0  0  0  0  0  0  0  0  0  0
   10.7282    0.0090    0.0000 C   0  0  0  0  0  0  0  0  0  0  0  0
    9.0000    1.0157    0.0000 C   0  0  0  0  0  0  0  0  0  0  0  0
    9.8680    1.5124    0.0000 C   0  0  0  0  0  0  0  0  0  0  0  0
   10.7205   -1.9910    0.0000 C   0  0  0  0  0  0  0  0  0  0  0  0
    5.1505   -1.1753    0.0000 H   0  0  0  0  0  0  0  0  0  0  0  0
    5.9735   -2.2968    0.0000 H   0  0  0  0  0  0  0  0  0  0  0  0
    5.7171   -1.5077    0.0000 H   0  0  0  0  0  0  0  0  0  0  0  0
    3.4791   -1.5077    0.0000 H   0  0  0  0  0  0  0  0  0  0  0  0
    3.2227   -2.2968    0.0000 H   0  0  0  0  0  0  0  0  0  0  0  0
    5.0333   -3.6122    0.0000 H   0  0  0  0  0  0  0  0  0  0  0  0
    5.7045   -3.1246    0.0000 H   0  0  0  0  0  0  0  0  0  0  0  0
    3.4916   -3.1246    0.0000 H   0  0  0  0  0  0  0  0  0  0  0  0
    4.1629   -3.6122    0.0000 H   0  0  0  0  0  0  0  0  0  0  0  0
    3.7320   -0.5768    0.0000 H   0  0  0  0  0  0  0  0  0  0  0  0
    2.4675   -0.9318    0.0000 H   0  0  0  0  0  0  0  0  0  0  0  0
    3.2646   -0.9318    0.0000 H   0  0  0  0  0  0  0  0  0  0  0  0
   12.7963    1.8111    0.0000 H   0  0  0  0  0  0  0  0  0  0  0  0
    2.3100    0.5801    0.0000 H   0  0  0  0  0  0  0  0  0  0  0  0
    1.4631    0.3532    0.0000 H   0  0  0  0  0  0  0  0  0  0  0  0
    1.6900   -0.4937    0.0000 H   0  0  0  0  0  0  0  0  0  0  0  0
   13.7958    0.5223    0.0000 H   0  0  0  0  0  0  0  0  0  0  0  0
   14.5928    0.5192    0.0000 H   0  0  0  0  0  0  0  0  0  0  0  0
   13.1261    3.0824    0.0000 H   0  0  0  0  0  0  0  0  0  0  0  0
   12.7249    2.3937    0.0000 H   0  0  0  0  0  0  0  0  0  0  0  0
   15.2739    0.9089    0.0000 H   0  0  0  0  0  0  0  0  0  0  0  0
   15.6751    1.5976    0.0000 H   0  0  0  0  0  0  0  0  0  0  0  0
   14.6042    3.4691    0.0000 H   0  0  0  0  0  0  0  0  0  0  0  0
   13.8071    3.4721    0.0000 H   0  0  0  0  0  0  0  0  0  0  0  0
    6.3509    2.1978    0.0000 H   0  0  0  0  0  0  0  0  0  0  0  0
    5.2181    2.5432    0.0000 H   0  0  0  0  0  0  0  0  0  0  0  0
    4.5981    3.1632    0.0000 H   0  0  0  0  0  0  0  0  0  0  0  0
    3.9781    2.5432    0.0000 H   0  0  0  0  0  0  0  0  0  0  0  0
   12.4617    0.3823    0.0000 H   0  0  0  0  0  0  0  0  0  0  0  0
   16.2438    2.4508    0.0000 H   0  0  0  0  0  0  0  0  0  0  0  0
   16.4740    3.2969    0.0000 H   0  0  0  0  0  0  0  0  0  0  0  0
   15.6279    3.5271    0.0000 H   0  0  0  0  0  0  0  0  0  0  0  0
    8.1258   -1.1010    0.0000 H   0  0  0  0  0  0  0  0  0  0  0  0
   11.2639   -0.3030    0.0000 H   0  0  0  0  0  0  0  0  0  0  0  0
    8.4643    1.3278    0.0000 H   0  0  0  0  0  0  0  0  0  0  0  0
    9.8703    2.1324    0.0000 H   0  0  0  0  0  0  0  0  0  0  0  0
   10.4084   -2.5267    0.0000 H   0  0  0  0  0  0  0  0  0  0  0  0
   11.2562   -2.3030    0.0000 H   0  0  0  0  0  0  0  0  0  0  0  0
   11.0325   -1.4552    0.0000 H   0  0  0  0  0  0  0  0  0  0  0  0
  1 19  2  0  0  0  0
  2 31  2  0  0  0  0
  3 34  1  0  0  0  0
  3 38  1  0  0  0  0
  4 11  1  0  0  0  0
  4 16  1  0  0  0  0
  4 17  1  0  0  0  0
  5 19  1  0  0  0  0
  5 20  1  0  0  0  0
  5 28  1  0  0  0  0
  6 17  2  0  0  0  0
  6 29  1  0  0  0  0
  7 25  1  0  0  0  0
  7 26  1  0  0  0  0
  7 30  1  0  0  0  0
  8 21  1  0  0  0  0
  8 31  1  0  0  0  0
  8 67  1  0  0  0  0
  9 27  1  0  0  0  0
  9 29  2  0  0  0  0
 10 29  1  0  0  0  0
 10 32  1  0  0  0  0
 10 71  1  0  0  0  0
 11 12  1  0  0  0  0
 11 13  1  0  0  0  0
 11 39  1  0  0  0  0
 12 14  1  0  0  0  0
 12 42  1  0  0  0  0
 12 43  1  0  0  0  0
 13 15  1  0  0  0  0
 13 40  1  0  0  0  0
 13 41  1  0  0  0  0
 14 15  1  0  0  0  0
 14 46  1  0  0  0  0
 14 47  1  0  0  0  0
 15 44  1  0  0  0  0
 15 45  1  0  0  0  0
 16 18  1  6  0  0  0
 16 19  1  0  0  0  0
 16 48  1  0  0  0  0
 17 20  1  0  0  0  0
 18 22  1  0  0  0  0
 18 49  1  0  0  0  0
 18 50  1  0  0  0  0
 20 27  2  0  0  0  0
 21 23  1  0  0  0  0
 21 24  1  0  0  0  0
 21 51  1  0  0  0  0
 22 52  1  0  0  0  0
 22 53  1  0  0  0  0
 22 54  1  0  0  0  0
 23 25  1  0  0  0  0
 23 57  1  0  0  0  0
 23 58  1  0  0  0  0
 24 26  1  0  0  0  0
 24 55  1  0  0  0  0
 24 56  1  0  0  0  0
 25 61  1  0  0  0  0
 25 62  1  0  0  0  0
 26 59  1  0  0  0  0
 26 60  1  0  0  0  0
 27 63  1  0  0  0  0
 28 64  1  0  0  0  0
 28 65  1  0  0  0  0
 28 66  1  0  0  0  0
 30 68  1  0  0  0  0
 30 69  1  0  0  0  0
 30 70  1  0  0  0  0
 31 33  1  0  0  0  0
 32 34  2  0  0  0  0
 32 36  1  0  0  0  0
 33 35  2  0  0  0  0
 33 37  1  0  0  0  0
 34 35  1  0  0  0  0
 35 72  1  0  0  0  0
 36 37  2  0  0  0  0
 36 73  1  0  0  0  0
 37 74  1  0  0  0  0
 38 75  1  0  0  0  0
 38 76  1  0  0  0  0
 38 77  1  0  0  0  0
M  END
> <PUBCHEM_COMPOUND_CID>
11364421

> <PUBCHEM_COMPOUND_CANONICALIZED>
1

> <PUBCHEM_CACTVS_COMPLEXITY>
816

> <PUBCHEM_CACTVS_HBOND_ACCEPTOR>
8

> <PUBCHEM_CACTVS_HBOND_DONOR>
2

> <PUBCHEM_CACTVS_ROTATABLE_BOND>
7

> <PUBCHEM_CACTVS_SUBSKEYS>
AAADcfB7sAAAAAAAAAAAAAAAAAAAAYAAAAA8WLEAAAAAAACxwAAAHgAQAAAADCzBmgY/9pfIFACoAjd3dACCiCk1MqAJ2KGvfNiObrLE/fuVNShs1hPY6ae6yRCeCAABAAAAEAAQAAIAAAAgAAAAAAAAAA==

> <PUBCHEM_IUPAC_OPENEYE_NAME>
4-[[(7R)-8-cyclopentyl-7-ethyl-5-methyl-6-oxo-7H-pteridin-2-yl]amino]-3-methoxy-N-(1-methyl-4-piperidyl)benzamide

> <PUBCHEM_IUPAC_CAS_NAME>
4-[[(7R)-8-cyclopentyl-7-ethyl-5-methyl-6-oxo-7H-pteridin-2-yl]amino]-3-methoxy-N-(1-methyl-4-piperidinyl)benzamide

> <PUBCHEM_IUPAC_NAME>
4-[[(7R)-8-cyclopentyl-7-ethyl-5-methyl-6-oxo-7H-pteridin-2-yl]amino]-3-methoxy-N-(1-methylpiperidin-4-yl)benzamide

> <PUBCHEM_IUPAC_SYSTEMATIC_NAME>
4-[[(7R)-8-cyclopentyl-7-ethyl-5-methyl-6-oxidanylidene-7H-pteridin-2-yl]amino]-3-methoxy-N-(1-methylpiperidin-4-yl)benzamide

> <PUBCHEM_IUPAC_TRADITIONAL_NAME>
4-[[(7R)-8-cyclopentyl-7-ethyl-6-keto-5-methyl-7H-pteridin-2-yl]amino]-3-methoxy-N-(1-methyl-4-piperidyl)benzamide

> <PUBCHEM_IUPAC_INCHI>
InChI=1S/C28H39N7O3/c1-5-22-27(37)34(3)23-17-29-28(32-25(23)35(22)20-8-6-7-9-20)31-21-11-10-18(16-24(21)38-4)26(36)30-19-12-14-33(2)15-13-19/h10-11,16-17,19-20,22H,5-9,12-15H2,1-4H3,(H,30,36)(H,29,31,32)/t22-/m1/s1

> <PUBCHEM_IUPAC_INCHIKEY>
XQVVPGYIWAGRNI-JOCHJYFZSA-N

> <PUBCHEM_XLOGP3_AA>
3.7

> <PUBCHEM_EXACT_MASS>
521.311

> <PUBCHEM_MOLECULAR_FORMULA>
C28H39N7O3

> <PUBCHEM_MOLECULAR_WEIGHT>
521.666

> <PUBCHEM_OPENEYE_CAN_SMILES>
CCC1C(=O)N(C2=CN=C(N=C2N1C3CCCC3)NC4=C(C=C(C=C4)C(=O)NC5CCN(CC5)C)OC)C

> <PUBCHEM_OPENEYE_ISO_SMILES>
CC[C@@H]1C(=O)N(C2=CN=C(N=C2N1C3CCCC3)NC4=C(C=C(C=C4)C(=O)NC5CCN(CC5)C)OC)C

> <PUBCHEM_CACTVS_TPSA>
103

> <PUBCHEM_MONOISOTOPIC_WEIGHT>
521.311

> <PUBCHEM_TOTAL_CHARGE>
0

> <PUBCHEM_HEAVY_ATOM_COUNT>
38

> <PUBCHEM_ATOM_DEF_STEREO_COUNT>
1

> <PUBCHEM_ATOM_UDEF_STEREO_COUNT>
0

> <PUBCHEM_BOND_DEF_STEREO_COUNT>
0

> <PUBCHEM_BOND_UDEF_STEREO_COUNT>
0

> <PUBCHEM_ISOTOPIC_ATOM_COUNT>
0

> <PUBCHEM_COMPONENT_COUNT>
1

> <PUBCHEM_CACTVS_TAUTO_COUNT>
11

> <PUBCHEM_COORDINATE_TYPE>
1
5
255

> <PUBCHEM_BONDANNOTATIONS>
16  18  6
17  20  8
20  27  8
32  34  8
32  36  8
33  35  8
33  37  8
34  35  8
36  37  8
6  17  8
6  29  8
9  27  8
9  29  8

$$$$
11234052
  -OEChem-11021605012D

 46 49  0     1  0  0  0  0  0999 V2000
    9.9720    0.3606    0.0000 F   0  0  0  0  0  0  0  0  0  0  0  0
    4.8100    1.3014    0.0000 O   0  0  0  0  0  0  0  0  0  0  0  0
    8.2400   -0.6394    0.0000 O   0  0  0  0  0  0  0  0  0  0  0  0
    2.3100    2.1675    0.0000 O   0  0  0  0  0  0  0  0  0  0  0  0
    5.6419   -1.1394    0.0000 N   0  0  0  0  0  0  0  0  0  0  0  0
   11.7843   -2.4442    0.0000 N   0  0  0  0  0  0  0  0  0  0  0  0
    5.6419   -2.1394    0.0000 N   0  0  0  0  0  0  0  0  0  0  0  0
    7.3740   -2.1394    0.0000 N   0  0  0  0  0  0  0  0  0  0  0  0
    6.5079   -0.6394    0.0000 C   0  0  0  0  0  0  0  0  0  0  0  0
    6.2987    0.3324    0.0000 C   0  0  0  0  0  0  0  0  0  0  0  0
    5.3100    0.4354    0.0000 C   0  0  0  0  0  0  0  0  0  0  0  0
   10.8381   -1.1394    0.0000 C   0  0  0  0  0  0  0  0  0  0  0  0
   10.8381   -2.1394    0.0000 C   0  0  0  0  0  0  0  0  0  0  0  0
    4.9049   -0.4724    0.0000 C   0  0  0  0  0  0  0  0  0  0  0  0
    7.3740   -1.1394    0.0000 C   0  0  0  0  0  0  0  0  0  0  0  0
    9.1060   -1.1394    0.0000 C   0  0  0  0  0  0  0  0  0  0  0  0
   12.3679   -1.6394    0.0000 C   0  0  0  0  0  0  0  0  0  0  0  0
    9.9720   -0.6394    0.0000 C   0  0  0  0  0  0  0  0  0  0  0  0
   11.7843   -0.8347    0.0000 C   0  0  0  0  0  0  0  0  0  0  0  0
    6.9666    1.0767    0.0000 C   0  0  0  0  0  0  0  0  0  0  0  0
    3.8100    1.3014    0.0000 C   0  0  0  0  0  0  0  0  0  0  0  0
    9.9720   -2.6394    0.0000 C   0  0  0  0  0  0  0  0  0  0  0  0
    3.3100    2.1675    0.0000 C   0  0  1  0  0  0  0  0  0  0  0  0
    9.1060   -2.1394    0.0000 C   0  0  0  0  0  0  0  0  0  0  0  0
   13.3679   -1.6394    0.0000 C   0  0  0  0  0  0  0  0  0  0  0  0
    6.5079   -2.6394    0.0000 C   0  0  0  0  0  0  0  0  0  0  0  0
    3.8100    3.0335    0.0000 C   0  0  0  0  0  0  0  0  0  0  0  0
    4.2982   -0.6002    0.0000 H   0  0  0  0  0  0  0  0  0  0  0  0
   11.9769   -0.2454    0.0000 H   0  0  0  0  0  0  0  0  0  0  0  0
    7.4280    0.6626    0.0000 H   0  0  0  0  0  0  0  0  0  0  0  0
    7.3806    1.5381    0.0000 H   0  0  0  0  0  0  0  0  0  0  0  0
    6.5051    1.4907    0.0000 H   0  0  0  0  0  0  0  0  0  0  0  0
   11.9769   -3.0335    0.0000 H   0  0  0  0  0  0  0  0  0  0  0  0
    3.2274    1.0894    0.0000 H   0  0  0  0  0  0  0  0  0  0  0  0
    3.9177    0.6909    0.0000 H   0  0  0  0  0  0  0  0  0  0  0  0
    9.9720   -3.2594    0.0000 H   0  0  0  0  0  0  0  0  0  0  0  0
    3.0000    1.6305    0.0000 H   0  0  0  0  0  0  0  0  0  0  0  0
    8.5691   -2.4494    0.0000 H   0  0  0  0  0  0  0  0  0  0  0  0
   13.3679   -2.2594    0.0000 H   0  0  0  0  0  0  0  0  0  0  0  0
   13.9879   -1.6394    0.0000 H   0  0  0  0  0  0  0  0  0  0  0  0
   13.3679   -1.0194    0.0000 H   0  0  0  0  0  0  0  0  0  0  0  0
    4.3469    2.7235    0.0000 H   0  0  0  0  0  0  0  0  0  0  0  0
    4.1200    3.5704    0.0000 H   0  0  0  0  0  0  0  0  0  0  0  0
    3.2731    3.3435    0.0000 H   0  0  0  0  0  0  0  0  0  0  0  0
    6.5079   -3.2594    0.0000 H   0  0  0  0  0  0  0  0  0  0  0  0
    2.0000    2.7044    0.0000 H   0  0  0  0  0  0  0  0  0  0  0  0
  1 18  1  0  0  0  0
  2 11  1  0  0  0  0
  2 21  1  0  0  0  0
  3 15  1  0  0  0  0
  3 16  1  0  0  0  0
 23  4  1  6  0  0  0
  4 46  1  0  0  0  0
  5  7  1  0  0  0  0
  5  9  1  0  0  0  0
  5 14  1  0  0  0  0
  6 13  1  0  0  0  0
  6 17  1  0  0  0  0
  6 33  1  0  0  0  0
  7 26  2  0  0  0  0
  8 15  2  0  0  0  0
  8 26  1  0  0  0  0
  9 10  2  0  0  0  0
  9 15  1  0  0  0  0
 10 11  1  0  0  0  0
 10 20  1  0  0  0  0
 11 14  2  0  0  0  0
 12 13  2  0  0  0  0
 12 18  1  0  0  0  0
 12 19  1  0  0  0  0
 13 22  1  0  0  0  0
 14 28  1  0  0  0  0
 16 18  2  0  0  0  0
 16 24  1  0  0  0  0
 17 19  2  0  0  0  0
 17 25  1  0  0  0  0
 19 29  1  0  0  0  0
 20 30  1  0  0  0  0
 20 31  1  0  0  0  0
 20 32  1  0  0  0  0
 21 23  1  0  0  0  0
 21 34  1  0  0  0  0
 21 35  1  0  0  0  0
 22 24  2  0  0  0  0
 22 36  1  0  0  0  0
 23 27  1  0  0  0  0
 23 37  1  0  0  0  0
 24 38  1  0  0  0  0
 25 39  1  0  0  0  0
 25 40  1  0  0  0  0
 25 41  1  0  0  0  0
 26 45  1  0  0  0  0
 27 42  1  0  0  0  0
 27 43  1  0  0  0  0
 27 44  1  0  0  0  0
M  END
> <PUBCHEM_COMPOUND_CID>
11234052

> <PUBCHEM_COMPOUND_CANONICALIZED>
1

> <PUBCHEM_CACTVS_COMPLEXITY>
515

> <PUBCHEM_CACTVS_HBOND_ACCEPTOR>
6

> <PUBCHEM_CACTVS_HBOND_DONOR>
2

> <PUBCHEM_CACTVS_ROTATABLE_BOND>
5

> <PUBCHEM_CACTVS_SUBSKEYS>
AAADceB7sQAAAAAAAAAAAAAAAAAAAWLAAAA8QAAAAAAAAFgB/gAAHwAYCAAADBzhng4/1vbJlgCiAzRnZASSjC8x8qAd2SA/fJiPfuLEuZufuCjm2Bvb6Cfw0LMOAEABAAACAAAAgAIAAAQAAAAAAAAAAA==

> <PUBCHEM_IUPAC_OPENEYE_NAME>
(2R)-1-[4-[(4-fluoro-2-methyl-1H-indol-5-yl)oxy]-5-methyl-pyrrolo[2,1-f][1,2,4]triazin-6-yl]oxypropan-2-ol

> <PUBCHEM_IUPAC_CAS_NAME>
(2R)-1-[[4-[(4-fluoro-2-methyl-1H-indol-5-yl)oxy]-5-methyl-6-pyrrolo[2,1-f][1,2,4]triazinyl]oxy]-2-propanol

> <PUBCHEM_IUPAC_NAME>
(2R)-1-[4-[(4-fluoro-2-methyl-1H-indol-5-yl)oxy]-5-methylpyrrolo[2,1-f][1,2,4]triazin-6-yl]oxypropan-2-ol

> <PUBCHEM_IUPAC_SYSTEMATIC_NAME>
(2R)-1-[4-[(4-fluoranyl-2-methyl-1H-indol-5-yl)oxy]-5-methyl-pyrrolo[2,1-f][1,2,4]triazin-6-yl]oxypropan-2-ol

> <PUBCHEM_IUPAC_TRADITIONAL_NAME>
(2R)-1-[4-[(4-fluoro-2-methyl-1H-indol-5-yl)oxy]-5-methyl-pyrrolo[2,1-f][1,2,4]triazin-6-yl]oxypropan-2-ol

> <PUBCHEM_IUPAC_INCHI>
InChI=1S/C19H19FN4O3/c1-10-6-13-14(23-10)4-5-15(17(13)20)27-19-18-12(3)16(26-8-11(2)25)7-24(18)22-9-21-19/h4-7,9,11,23,25H,8H2,1-3H3/t11-/m1/s1

> <PUBCHEM_IUPAC_INCHIKEY>
WCWUXEGQKLTGDX-LLVKDONJSA-N

> <PUBCHEM_XLOGP3_AA>
3

> <PUBCHEM_EXACT_MASS>
370.144

> <PUBCHEM_MOLECULAR_FORMULA>
C19H19FN4O3

> <PUBCHEM_MOLECULAR_WEIGHT>
370.384

> <PUBCHEM_OPENEYE_CAN_SMILES>
CC1=CC2=C(N1)C=CC(=C2F)OC3=NC=NN4C3=C(C(=C4)OCC(C)O)C

> <PUBCHEM_OPENEYE_ISO_SMILES>
CC1=CC2=C(N1)C=CC(=C2F)OC3=NC=NN4C3=C(C(=C4)OC[C@@H](C)O)C

> <PUBCHEM_CACTVS_TPSA>
84.7

> <PUBCHEM_MONOISOTOPIC_WEIGHT>
370.144

> <PUBCHEM_TOTAL_CHARGE>
0

> <PUBCHEM_HEAVY_ATOM_COUNT>
27

> <PUBCHEM_ATOM_DEF_STEREO_COUNT>
1

> <PUBCHEM_ATOM_UDEF_STEREO_COUNT>
0

> <PUBCHEM_BOND_DEF_STEREO_COUNT>
0

> <PUBCHEM_BOND_UDEF_STEREO_COUNT>
0

> <PUBCHEM_ISOTOPIC_ATOM_COUNT>
0

> <PUBCHEM_COMPONENT_COUNT>
1

> <PUBCHEM_CACTVS_TAUTO_COUNT>
1

> <PUBCHEM_COORDINATE_TYPE>
1
5
255

> <PUBCHEM_BONDANNOTATIONS>
10  11  8
11  14  8
12  13  8
12  18  8
12  19  8
13  22  8
16  18  8
16  24  8
17  19  8
22  24  8
23  4  6
5  14  8
5  7  8
5  9  8
6  13  8
6  17  8
7  26  8
8  15  8
8  26  8
9  10  8
9  15  8

$$$$
11427553
  -OEChem-11021605012D

 45 48  0     0  0  0  0  0  0999 V2000
    6.5422    3.6416    0.0000 O   0  0  0  0  0  0  0  0  0  0  0  0
    8.1886    3.1035    0.0000 N   0  0  0  0  0  0  0  0  0  0  0  0
   10.1456    3.5160    0.0000 N   0  0  0  0  0  0  0  0  0  0  0  0
    4.6783   -3.6710    0.0000 N   0  0  0  0  0  0  0  0  0  0  0  0
    5.2619   -2.8662    0.0000 N   0  0  0  0  0  0  0  0  0  0  0  0
    8.8564    2.3592    0.0000 C   0  0  0  0  0  0  0  0  0  0  0  0
    8.4993    4.0541    0.0000 C   0  0  0  0  0  0  0  0  0  0  0  0
    9.8349    2.5655    0.0000 C   0  0  0  0  0  0  0  0  0  0  0  0
    9.4778    4.2603    0.0000 C   0  0  0  0  0  0  0  0  0  0  0  0
    7.2101    2.8973    0.0000 C   0  0  0  0  0  0  0  0  0  0  0  0
    6.8994    1.9468    0.0000 C   0  0  0  0  0  0  0  0  0  0  0  0
    5.9209    1.7406    0.0000 C   0  0  0  0  0  0  0  0  0  0  0  0
    7.5673    1.2025    0.0000 C   0  0  0  0  0  0  0  0  0  0  0  0
    6.2781    0.0458    0.0000 C   0  0  0  0  0  0  0  0  0  0  0  0
    5.6103    0.7901    0.0000 C   0  0  0  0  0  0  0  0  0  0  0  0
    7.2566    0.2520    0.0000 C   0  0  0  0  0  0  0  0  0  0  0  0
    3.7320   -2.3662    0.0000 C   0  0  0  0  0  0  0  0  0  0  0  0
    4.6783   -2.0615    0.0000 C   0  0  0  0  0  0  0  0  0  0  0  0
    3.7320   -3.3662    0.0000 C   0  0  0  0  0  0  0  0  0  0  0  0
    5.9674   -0.9048    0.0000 C   0  0  0  0  0  0  0  0  0  0  0  0
    4.9889   -1.1110    0.0000 C   0  0  0  0  0  0  0  0  0  0  0  0
    2.8660   -1.8662    0.0000 C   0  0  0  0  0  0  0  0  0  0  0  0
    2.8660   -3.8662    0.0000 C   0  0  0  0  0  0  0  0  0  0  0  0
    2.0000   -2.3662    0.0000 C   0  0  0  0  0  0  0  0  0  0  0  0
    2.0000   -3.3662    0.0000 C   0  0  0  0  0  0  0  0  0  0  0  0
    8.4787    4.6737    0.0000 H   0  0  0  0  0  0  0  0  0  0  0  0
    7.8854    4.1414    0.0000 H   0  0  0  0  0  0  0  0  0  0  0  0
    8.3301    2.0316    0.0000 H   0  0  0  0  0  0  0  0  0  0  0  0
    9.0877    1.7840    0.0000 H   0  0  0  0  0  0  0  0  0  0  0  0
   10.0041    4.5879    0.0000 H   0  0  0  0  0  0  0  0  0  0  0  0
    9.2465    4.8355    0.0000 H   0  0  0  0  0  0  0  0  0  0  0  0
    9.8555    1.9458    0.0000 H   0  0  0  0  0  0  0  0  0  0  0  0
   10.4488    2.4781    0.0000 H   0  0  0  0  0  0  0  0  0  0  0  0
   10.7523    3.6438    0.0000 H   0  0  0  0  0  0  0  0  0  0  0  0
    5.5069    2.2020    0.0000 H   0  0  0  0  0  0  0  0  0  0  0  0
    8.1739    1.3304    0.0000 H   0  0  0  0  0  0  0  0  0  0  0  0
    5.0036    0.6622    0.0000 H   0  0  0  0  0  0  0  0  0  0  0  0
    7.6707   -0.2095    0.0000 H   0  0  0  0  0  0  0  0  0  0  0  0
    6.3815   -1.3662    0.0000 H   0  0  0  0  0  0  0  0  0  0  0  0
    4.5749   -0.6495    0.0000 H   0  0  0  0  0  0  0  0  0  0  0  0
    2.8660   -1.2462    0.0000 H   0  0  0  0  0  0  0  0  0  0  0  0
    4.8709   -4.2603    0.0000 H   0  0  0  0  0  0  0  0  0  0  0  0
    2.8660   -4.4862    0.0000 H   0  0  0  0  0  0  0  0  0  0  0  0
    1.4631   -2.0562    0.0000 H   0  0  0  0  0  0  0  0  0  0  0  0
    1.4631   -3.6762    0.0000 H   0  0  0  0  0  0  0  0  0  0  0  0
  1 10  2  0  0  0  0
  2  6  1  0  0  0  0
  2  7  1  0  0  0  0
  2 10  1  0  0  0  0
  3  8  1  0  0  0  0
  3  9  1  0  0  0  0
  3 34  1  0  0  0  0
  4  5  1  0  0  0  0
  4 19  1  0  0  0  0
  4 42  1  0  0  0  0
  5 18  2  0  0  0  0
  6  8  1  0  0  0  0
  6 28  1  0  0  0  0
  6 29  1  0  0  0  0
  7  9  1  0  0  0  0
  7 26  1  0  0  0  0
  7 27  1  0  0  0  0
  8 32  1  0  0  0  0
  8 33  1  0  0  0  0
  9 30  1  0  0  0  0
  9 31  1  0  0  0  0
 10 11  1  0  0  0  0
 11 12  2  0  0  0  0
 11 13  1  0  0  0  0
 12 15  1  0  0  0  0
 12 35  1  0  0  0  0
 13 16  2  0  0  0  0
 13 36  1  0  0  0  0
 14 15  2  0  0  0  0
 14 16  1  0  0  0  0
 14 20  1  0  0  0  0
 15 37  1  0  0  0  0
 16 38  1  0  0  0  0
 17 18  1  0  0  0  0
 17 19  1  0  0  0  0
 17 22  2  0  0  0  0
 18 21  1  0  0  0  0
 19 23  2  0  0  0  0
 20 21  2  0  0  0  0
 20 39  1  0  0  0  0
 21 40  1  0  0  0  0
 22 24  1  0  0  0  0
 22 41  1  0  0  0  0
 23 25  1  0  0  0  0
 23 43  1  0  0  0  0
 24 25  2  0  0  0  0
 24 44  1  0  0  0  0
 25 45  1  0  0  0  0
M  END
> <PUBCHEM_COMPOUND_CID>
11427553

> <PUBCHEM_COMPOUND_CANONICALIZED>
1

> <PUBCHEM_CACTVS_COMPLEXITY>
480

> <PUBCHEM_CACTVS_HBOND_ACCEPTOR>
3

> <PUBCHEM_CACTVS_HBOND_DONOR>
2

> <PUBCHEM_CACTVS_ROTATABLE_BOND>
3

> <PUBCHEM_CACTVS_SUBSKEYS>
AAADceB7oAAAAAAAAAAAAAAAAAAAAWAAAAA8YIAAAAAAAFgB9AAAHgAYAAAADAjBngQwwPPjAACqAyVyUACSBAAkAgAYuaE4ZNgIYLKA1dGUpQhgngCIyYcYiICOQAAAAAACAACAAAAAAAQAAAAAAAAAAA==

> <PUBCHEM_IUPAC_OPENEYE_NAME>
[4-[(E)-2-(1H-indazol-3-yl)vinyl]phenyl]-piperazin-1-yl-methanone

> <PUBCHEM_IUPAC_CAS_NAME>
[4-[(E)-2-(1H-indazol-3-yl)ethenyl]phenyl]-(1-piperazinyl)methanone

> <PUBCHEM_IUPAC_NAME>
[4-[(E)-2-(1H-indazol-3-yl)ethenyl]phenyl]-piperazin-1-ylmethanone

> <PUBCHEM_IUPAC_SYSTEMATIC_NAME>
[4-[(E)-2-(1H-indazol-3-yl)ethenyl]phenyl]-piperazin-1-yl-methanone

> <PUBCHEM_IUPAC_TRADITIONAL_NAME>
[4-[(E)-2-(1H-indazol-3-yl)vinyl]phenyl]-piperazino-methanone

> <PUBCHEM_IUPAC_INCHI>
InChI=1S/C20H20N4O/c25-20(24-13-11-21-12-14-24)16-8-5-15(6-9-16)7-10-19-17-3-1-2-4-18(17)22-23-19/h1-10,21H,11-14H2,(H,22,23)/b10-7+

> <PUBCHEM_IUPAC_INCHIKEY>
YYLKKYCXAOBSRM-JXMROGBWSA-N

> <PUBCHEM_XLOGP3_AA>
2.7

> <PUBCHEM_EXACT_MASS>
332.164

> <PUBCHEM_MOLECULAR_FORMULA>
C20H20N4O

> <PUBCHEM_MOLECULAR_WEIGHT>
332.407

> <PUBCHEM_OPENEYE_CAN_SMILES>
C1CN(CCN1)C(=O)C2=CC=C(C=C2)C=CC3=NNC4=CC=CC=C43

> <PUBCHEM_OPENEYE_ISO_SMILES>
C1CN(CCN1)C(=O)C2=CC=C(C=C2)/C=C/C3=NNC4=CC=CC=C43

> <PUBCHEM_CACTVS_TPSA>
61

> <PUBCHEM_MONOISOTOPIC_WEIGHT>
332.164

> <PUBCHEM_TOTAL_CHARGE>
0

> <PUBCHEM_HEAVY_ATOM_COUNT>
25

> <PUBCHEM_ATOM_DEF_STEREO_COUNT>
0

> <PUBCHEM_ATOM_UDEF_STEREO_COUNT>
0

> <PUBCHEM_BOND_DEF_STEREO_COUNT>
1

> <PUBCHEM_BOND_UDEF_STEREO_COUNT>
0

> <PUBCHEM_ISOTOPIC_ATOM_COUNT>
0

> <PUBCHEM_COMPONENT_COUNT>
1

> <PUBCHEM_CACTVS_TAUTO_COUNT>
5

> <PUBCHEM_COORDINATE_TYPE>
1
5
255

> <PUBCHEM_BONDANNOTATIONS>
11  12  8
11  13  8
12  15  8
13  16  8
14  15  8
14  16  8
17  18  8
17  19  8
17  22  8
19  23  8
22  24  8
23  25  8
24  25  8
4  19  8
4  5  8
5  18  8

$$$$
644241
  -OEChem-11021605012D

 61 65  0     0  0  0  0  0  0999 V2000
    2.0000    1.3261    0.0000 F   0  0  0  0  0  0  0  0  0  0  0  0
    3.3660    0.9600    0.0000 F   0  0  0  0  0  0  0  0  0  0  0  0
    2.3660    2.6921    0.0000 F   0  0  0  0  0  0  0  0  0  0  0  0
    5.4641    0.3261    0.0000 O   0  0  0  0  0  0  0  0  0  0  0  0
    4.5981    4.8261    0.0000 N   0  0  0  0  0  0  0  0  0  0  0  0
    6.3301    1.8261    0.0000 N   0  0  0  0  0  0  0  0  0  0  0  0
    8.0622   -2.1739    0.0000 N   0  0  0  0  0  0  0  0  0  0  0  0
    4.0981    6.3649    0.0000 N   0  0  0  0  0  0  0  0  0  0  0  0
    7.1962   -3.6739    0.0000 N   0  0  0  0  0  0  0  0  0  0  0  0
    6.3301   -2.1739    0.0000 N   0  0  0  0  0  0  0  0  0  0  0  0
    7.1962   -6.6739    0.0000 N   0  0  0  0  0  0  0  0  0  0  0  0
    4.5981    3.8261    0.0000 C   0  0  0  0  0  0  0  0  0  0  0  0
    5.4641    2.3261    0.0000 C   0  0  0  0  0  0  0  0  0  0  0  0
    3.7320    2.3261    0.0000 C   0  0  0  0  0  0  0  0  0  0  0  0
    5.4641    3.3261    0.0000 C   0  0  0  0  0  0  0  0  0  0  0  0
    3.7320    3.3261    0.0000 C   0  0  0  0  0  0  0  0  0  0  0  0
    4.5981    1.8261    0.0000 C   0  0  0  0  0  0  0  0  0  0  0  0
    7.1962    0.3261    0.0000 C   0  0  0  0  0  0  0  0  0  0  0  0
    8.0622   -1.1739    0.0000 C   0  0  0  0  0  0  0  0  0  0  0  0
    8.9282   -0.6739    0.0000 C   0  0  0  0  0  0  0  0  0  0  0  0
    7.1962   -0.6739    0.0000 C   0  0  0  0  0  0  0  0  0  0  0  0
    6.3301    0.8261    0.0000 C   0  0  0  0  0  0  0  0  0  0  0  0
    5.4071    5.4139    0.0000 C   0  0  0  0  0  0  0  0  0  0  0  0
    8.0622    0.8261    0.0000 C   0  0  0  0  0  0  0  0  0  0  0  0
    8.9282    0.3261    0.0000 C   0  0  0  0  0  0  0  0  0  0  0  0
    2.8660    1.8261    0.0000 C   0  0  0  0  0  0  0  0  0  0  0  0
    3.7891    5.4139    0.0000 C   0  0  0  0  0  0  0  0  0  0  0  0
    5.0981    6.3649    0.0000 C   0  0  0  0  0  0  0  0  0  0  0  0
    9.7942   -1.1739    0.0000 C   0  0  0  0  0  0  0  0  0  0  0  0
    7.1962   -2.6739    0.0000 C   0  0  0  0  0  0  0  0  0  0  0  0
    5.6859    7.1739    0.0000 C   0  0  0  0  0  0  0  0  0  0  0  0
    6.3301   -4.1739    0.0000 C   0  0  0  0  0  0  0  0  0  0  0  0
    6.3301   -5.1739    0.0000 C   0  0  0  0  0  0  0  0  0  0  0  0
    5.4641   -3.6739    0.0000 C   0  0  0  0  0  0  0  0  0  0  0  0
    5.4641   -2.6739    0.0000 C   0  0  0  0  0  0  0  0  0  0  0  0
    5.4641   -5.6739    0.0000 C   0  0  0  0  0  0  0  0  0  0  0  0
    7.1962   -5.6739    0.0000 C   0  0  0  0  0  0  0  0  0  0  0  0
    5.4641   -6.6739    0.0000 C   0  0  0  0  0  0  0  0  0  0  0  0
    6.3301   -7.1739    0.0000 C   0  0  0  0  0  0  0  0  0  0  0  0
    6.0010    3.6361    0.0000 H   0  0  0  0  0  0  0  0  0  0  0  0
    3.1951    3.6361    0.0000 H   0  0  0  0  0  0  0  0  0  0  0  0
    4.5981    1.2061    0.0000 H   0  0  0  0  0  0  0  0  0  0  0  0
    6.8671    2.1361    0.0000 H   0  0  0  0  0  0  0  0  0  0  0  0
    6.6592   -0.9839    0.0000 H   0  0  0  0  0  0  0  0  0  0  0  0
    5.9967    5.2223    0.0000 H   0  0  0  0  0  0  0  0  0  0  0  0
    8.0622    1.4461    0.0000 H   0  0  0  0  0  0  0  0  0  0  0  0
    9.4651    0.6361    0.0000 H   0  0  0  0  0  0  0  0  0  0  0  0
    3.1994    5.2223    0.0000 H   0  0  0  0  0  0  0  0  0  0  0  0
    8.5991   -2.4839    0.0000 H   0  0  0  0  0  0  0  0  0  0  0  0
    9.4842   -1.7109    0.0000 H   0  0  0  0  0  0  0  0  0  0  0  0
   10.3312   -1.4839    0.0000 H   0  0  0  0  0  0  0  0  0  0  0  0
   10.1042   -0.6370    0.0000 H   0  0  0  0  0  0  0  0  0  0  0  0
    6.1874    6.8095    0.0000 H   0  0  0  0  0  0  0  0  0  0  0  0
    6.0503    7.6755    0.0000 H   0  0  0  0  0  0  0  0  0  0  0  0
    5.1843    7.5384    0.0000 H   0  0  0  0  0  0  0  0  0  0  0  0
    4.9272   -3.9839    0.0000 H   0  0  0  0  0  0  0  0  0  0  0  0
    4.9272   -2.3639    0.0000 H   0  0  0  0  0  0  0  0  0  0  0  0
    4.9272   -5.3639    0.0000 H   0  0  0  0  0  0  0  0  0  0  0  0
    7.7331   -5.3639    0.0000 H   0  0  0  0  0  0  0  0  0  0  0  0
    4.9272   -6.9839    0.0000 H   0  0  0  0  0  0  0  0  0  0  0  0
    6.3301   -7.7939    0.0000 H   0  0  0  0  0  0  0  0  0  0  0  0
  1 26  1  0  0  0  0
  2 26  1  0  0  0  0
  3 26  1  0  0  0  0
  4 22  2  0  0  0  0
  5 12  1  0  0  0  0
  5 23  1  0  0  0  0
  5 27  1  0  0  0  0
  6 13  1  0  0  0  0
  6 22  1  0  0  0  0
  6 43  1  0  0  0  0
  7 19  1  0  0  0  0
  7 30  1  0  0  0  0
  7 49  1  0  0  0  0
  8 27  2  0  0  0  0
  8 28  1  0  0  0  0
  9 30  1  0  0  0  0
  9 32  2  0  0  0  0
 10 30  2  0  0  0  0
 10 35  1  0  0  0  0
 11 37  1  0  0  0  0
 11 39  2  0  0  0  0
 12 15  1  0  0  0  0
 12 16  2  0  0  0  0
 13 15  2  0  0  0  0
 13 17  1  0  0  0  0
 14 16  1  0  0  0  0
 14 17  2  0  0  0  0
 14 26  1  0  0  0  0
 15 40  1  0  0  0  0
 16 41  1  0  0  0  0
 17 42  1  0  0  0  0
 18 21  2  0  0  0  0
 18 22  1  0  0  0  0
 18 24  1  0  0  0  0
 19 20  2  0  0  0  0
 19 21  1  0  0  0  0
 20 25  1  0  0  0  0
 20 29  1  0  0  0  0
 21 44  1  0  0  0  0
 23 28  2  0  0  0  0
 23 45  1  0  0  0  0
 24 25  2  0  0  0  0
 24 46  1  0  0  0  0
 25 47  1  0  0  0  0
 27 48  1  0  0  0  0
 28 31  1  0  0  0  0
 29 50  1  0  0  0  0
 29 51  1  0  0  0  0
 29 52  1  0  0  0  0
 31 53  1  0  0  0  0
 31 54  1  0  0  0  0
 31 55  1  0  0  0  0
 32 33  1  0  0  0  0
 32 34  1  0  0  0  0
 33 36  1  0  0  0  0
 33 37  2  0  0  0  0
 34 35  2  0  0  0  0
 34 56  1  0  0  0  0
 35 57  1  0  0  0  0
 36 38  2  0  0  0  0
 36 58  1  0  0  0  0
 37 59  1  0  0  0  0
 38 39  1  0  0  0  0
 38 60  1  0  0  0  0
 39 61  1  0  0  0  0
M  END
> <PUBCHEM_COMPOUND_CID>
644241

> <PUBCHEM_COMPOUND_CANONICALIZED>
1

> <PUBCHEM_CACTVS_COMPLEXITY>
817

> <PUBCHEM_CACTVS_HBOND_ACCEPTOR>
9

> <PUBCHEM_CACTVS_HBOND_DONOR>
2

> <PUBCHEM_CACTVS_ROTATABLE_BOND>
6

> <PUBCHEM_CACTVS_SUBSKEYS>
AAADceB7oYAAAAAAAAAAAAAAAAAAAWAAAAA8eIEAAAAAAAAB/AAAHwAQAAAADAjBnhQ/0JfMEACoAzV3dACCgC01EqAJ2CE4dNiIaPLA3dGUJQholALIyacciACOQAAAQAQCAACAAACACAQAAAAAAAAAAA==

> <PUBCHEM_IUPAC_OPENEYE_NAME>
4-methyl-N-[3-(4-methylimidazol-1-yl)-5-(trifluoromethyl)phenyl]-3-[[4-(3-pyridyl)pyrimidin-2-yl]amino]benzamide

> <PUBCHEM_IUPAC_CAS_NAME>
4-methyl-N-[3-(4-methyl-1-imidazolyl)-5-(trifluoromethyl)phenyl]-3-[[4-(3-pyridinyl)-2-pyrimidinyl]amino]benzamide

> <PUBCHEM_IUPAC_NAME>
4-methyl-N-[3-(4-methylimidazol-1-yl)-5-(trifluoromethyl)phenyl]-3-[(4-pyridin-3-ylpyrimidin-2-yl)amino]benzamide

> <PUBCHEM_IUPAC_SYSTEMATIC_NAME>
4-methyl-N-[3-(4-methylimidazol-1-yl)-5-(trifluoromethyl)phenyl]-3-[(4-pyridin-3-ylpyrimidin-2-yl)amino]benzamide

> <PUBCHEM_IUPAC_TRADITIONAL_NAME>
4-methyl-N-[3-(4-methylimidazol-1-yl)-5-(trifluoromethyl)phenyl]-3-[[4-(3-pyridyl)pyrimidin-2-yl]amino]benzamide

> <PUBCHEM_IUPAC_INCHI>
InChI=1S/C28H22F3N7O/c1-17-5-6-19(10-25(17)37-27-33-9-7-24(36-27)20-4-3-8-32-14-20)26(39)35-22-11-21(28(29,30)31)12-23(13-22)38-15-18(2)34-16-38/h3-16H,1-2H3,(H,35,39)(H,33,36,37)

> <PUBCHEM_IUPAC_INCHIKEY>
HHZIURLSWUIHRB-UHFFFAOYSA-N

> <PUBCHEM_XLOGP3_AA>
4.9

> <PUBCHEM_EXACT_MASS>
529.184

> <PUBCHEM_MOLECULAR_FORMULA>
C28H22F3N7O

> <PUBCHEM_MOLECULAR_WEIGHT>
529.527

> <PUBCHEM_OPENEYE_CAN_SMILES>
CC1=C(C=C(C=C1)C(=O)NC2=CC(=CC(=C2)N3C=C(N=C3)C)C(F)(F)F)NC4=NC=CC(=N4)C5=CN=CC=C5

> <PUBCHEM_OPENEYE_ISO_SMILES>
CC1=C(C=C(C=C1)C(=O)NC2=CC(=CC(=C2)N3C=C(N=C3)C)C(F)(F)F)NC4=NC=CC(=N4)C5=CN=CC=C5

> <PUBCHEM_CACTVS_TPSA>
97.6

> <PUBCHEM_MONOISOTOPIC_WEIGHT>
529.184

> <PUBCHEM_TOTAL_CHARGE>
0

> <PUBCHEM_HEAVY_ATOM_COUNT>
39

> <PUBCHEM_ATOM_DEF_STEREO_COUNT>
0

> <PUBCHEM_ATOM_UDEF_STEREO_COUNT>
0

> <PUBCHEM_BOND_DEF_STEREO_COUNT>
0

> <PUBCHEM_BOND_UDEF_STEREO_COUNT>
0

> <PUBCHEM_ISOTOPIC_ATOM_COUNT>
0

> <PUBCHEM_COMPONENT_COUNT>
1

> <PUBCHEM_CACTVS_TAUTO_COUNT>
20

> <PUBCHEM_COORDINATE_TYPE>
1
3

> <PUBCHEM_BONDANNOTATIONS>
10  30  8
10  35  8
11  37  8
11  39  8
12  15  8
12  16  8
13  15  8
13  17  8
14  16  8
14  17  8
18  21  8
18  24  8
19  20  8
19  21  8
20  25  8
23  28  8
24  25  8
32  34  8
33  36  8
33  37  8
34  35  8
36  38  8
38  39  8
5  23  8
5  27  8
8  27  8
8  28  8
9  30  8
9  32  8

$$$$
447077
  -OEChem-11021605012D

 45 48  0     0  0  0  0  0  0999 V2000
    4.5981    2.2500    0.0000 Cl  0  0  0  0  0  0  0  0  0  0  0  0
    2.8660   -0.7500    0.0000 Cl  0  0  0  0  0  0  0  0  0  0  0  0
   12.4583   -1.2875    0.0000 S   0  0  0  0  0  0  0  0  0  0  0  0
    3.7320   -1.2500    0.0000 O   0  0  0  0  0  0  0  0  0  0  0  0
    5.4641   -1.2500    0.0000 N   0  0  0  0  0  0  0  0  0  0  0  0
    7.2241   -1.2847    0.0000 N   0  0  0  0  0  0  0  0  0  0  0  0
    8.9942   -1.2741    0.0000 N   0  0  0  0  0  0  0  0  0  0  0  0
    8.1301    0.2708    0.0000 N   0  0  0  0  0  0  0  0  0  0  0  0
    4.5981    0.2500    0.0000 C   0  0  0  0  0  0  0  0  0  0  0  0
    6.3301   -0.7500    0.0000 C   0  0  0  0  0  0  0  0  0  0  0  0
    6.3301    0.2500    0.0000 C   0  0  0  0  0  0  0  0  0  0  0  0
    4.5981   -0.7500    0.0000 C   0  0  0  0  0  0  0  0  0  0  0  0
    5.4641    0.7500    0.0000 C   0  0  0  0  0  0  0  0  0  0  0  0
    3.7320    0.7500    0.0000 C   0  0  0  0  0  0  0  0  0  0  0  0
    5.4641   -2.2500    0.0000 C   0  0  0  0  0  0  0  0  0  0  0  0
    7.2241    0.7847    0.0000 C   0  0  0  0  0  0  0  0  0  0  0  0
    8.1301   -0.7708    0.0000 C   0  0  0  0  0  0  0  0  0  0  0  0
    3.7320    1.7500    0.0000 C   0  0  0  0  0  0  0  0  0  0  0  0
    2.8660    0.2500    0.0000 C   0  0  0  0  0  0  0  0  0  0  0  0
    9.8622   -0.7775    0.0000 C   0  0  0  0  0  0  0  0  0  0  0  0
    2.8660    2.2500    0.0000 C   0  0  0  0  0  0  0  0  0  0  0  0
    2.0000    0.7500    0.0000 C   0  0  0  0  0  0  0  0  0  0  0  0
    2.0000    1.7500    0.0000 C   0  0  0  0  0  0  0  0  0  0  0  0
   10.7263   -1.2808    0.0000 C   0  0  0  0  0  0  0  0  0  0  0  0
    9.8660    0.2225    0.0000 C   0  0  0  0  0  0  0  0  0  0  0  0
   11.5942   -0.7842    0.0000 C   0  0  0  0  0  0  0  0  0  0  0  0
   10.7340    0.7192    0.0000 C   0  0  0  0  0  0  0  0  0  0  0  0
   11.5981    0.2158    0.0000 C   0  0  0  0  0  0  0  0  0  0  0  0
   13.3263   -0.7908    0.0000 C   0  0  0  0  0  0  0  0  0  0  0  0
    5.4641    1.3700    0.0000 H   0  0  0  0  0  0  0  0  0  0  0  0
    4.8441   -2.2500    0.0000 H   0  0  0  0  0  0  0  0  0  0  0  0
    5.4641   -2.8700    0.0000 H   0  0  0  0  0  0  0  0  0  0  0  0
    6.0841   -2.2500    0.0000 H   0  0  0  0  0  0  0  0  0  0  0  0
    7.2169    1.4046    0.0000 H   0  0  0  0  0  0  0  0  0  0  0  0
    8.9918   -1.8942    0.0000 H   0  0  0  0  0  0  0  0  0  0  0  0
    2.8660    2.8700    0.0000 H   0  0  0  0  0  0  0  0  0  0  0  0
    1.4631    0.4400    0.0000 H   0  0  0  0  0  0  0  0  0  0  0  0
    1.4631    2.0600    0.0000 H   0  0  0  0  0  0  0  0  0  0  0  0
   10.7239   -1.9008    0.0000 H   0  0  0  0  0  0  0  0  0  0  0  0
    9.3303    0.5346    0.0000 H   0  0  0  0  0  0  0  0  0  0  0  0
   10.7364    1.3392    0.0000 H   0  0  0  0  0  0  0  0  0  0  0  0
   12.1362    0.5238    0.0000 H   0  0  0  0  0  0  0  0  0  0  0  0
   13.6342   -1.3290    0.0000 H   0  0  0  0  0  0  0  0  0  0  0  0
   13.8644   -0.4829    0.0000 H   0  0  0  0  0  0  0  0  0  0  0  0
   13.0183   -0.2527    0.0000 H   0  0  0  0  0  0  0  0  0  0  0  0
  1 18  1  0  0  0  0
  2 19  1  0  0  0  0
  3 26  1  0  0  0  0
  3 29  1  0  0  0  0
  4 12  2  0  0  0  0
  5 10  1  0  0  0  0
  5 12  1  0  0  0  0
  5 15  1  0  0  0  0
  6 10  2  0  0  0  0
  6 17  1  0  0  0  0
  7 17  1  0  0  0  0
  7 20  1  0  0  0  0
  7 35  1  0  0  0  0
  8 16  1  0  0  0  0
  8 17  2  0  0  0  0
  9 12  1  0  0  0  0
  9 13  2  0  0  0  0
  9 14  1  0  0  0  0
 10 11  1  0  0  0  0
 11 13  1  0  0  0  0
 11 16  2  0  0  0  0
 13 30  1  0  0  0  0
 14 18  2  0  0  0  0
 14 19  1  0  0  0  0
 15 31  1  0  0  0  0
 15 32  1  0  0  0  0
 15 33  1  0  0  0  0
 16 34  1  0  0  0  0
 18 21  1  0  0  0  0
 19 22  2  0  0  0  0
 20 24  2  0  0  0  0
 20 25  1  0  0  0  0
 21 23  2  0  0  0  0
 21 36  1  0  0  0  0
 22 23  1  0  0  0  0
 22 37  1  0  0  0  0
 23 38  1  0  0  0  0
 24 26  1  0  0  0  0
 24 39  1  0  0  0  0
 25 27  2  0  0  0  0
 25 40  1  0  0  0  0
 26 28  2  0  0  0  0
 27 28  1  0  0  0  0
 27 41  1  0  0  0  0
 28 42  1  0  0  0  0
 29 43  1  0  0  0  0
 29 44  1  0  0  0  0
 29 45  1  0  0  0  0
M  END
> <PUBCHEM_COMPOUND_CID>
447077

> <PUBCHEM_COMPOUND_CANONICALIZED>
1

> <PUBCHEM_CACTVS_COMPLEXITY>
626

> <PUBCHEM_CACTVS_HBOND_ACCEPTOR>
5

> <PUBCHEM_CACTVS_HBOND_DONOR>
1

> <PUBCHEM_CACTVS_ROTATABLE_BOND>
4

> <PUBCHEM_CACTVS_SUBSKEYS>
AAADceB7oABGAAAAAAAAAAAAAAAAAAAAAAA8YIEAAAAAAACB0AAAHgYQAAAADArB2iS/8ZfIEAioAjd3dACCgCkxD7AJ2DkoZtiIKLLh39GEJAxolwLIyacYiICOAAAAACCBAAAAAAAAQQIAAAAAAAAAAA==

> <PUBCHEM_IUPAC_OPENEYE_NAME>
6-(2,6-dichlorophenyl)-8-methyl-2-(3-methylsulfanylanilino)pyrido[2,3-d]pyrimidin-7-one

> <PUBCHEM_IUPAC_CAS_NAME>
6-(2,6-dichlorophenyl)-8-methyl-2-[3-(methylthio)anilino]-7-pyrido[2,3-d]pyrimidinone

> <PUBCHEM_IUPAC_NAME>
6-(2,6-dichlorophenyl)-8-methyl-2-(3-methylsulfanylanilino)pyrido[2,3-d]pyrimidin-7-one

> <PUBCHEM_IUPAC_SYSTEMATIC_NAME>
6-[2,6-bis(chloranyl)phenyl]-8-methyl-2-[(3-methylsulfanylphenyl)amino]pyrido[2,3-d]pyrimidin-7-one

> <PUBCHEM_IUPAC_TRADITIONAL_NAME>
6-(2,6-dichlorophenyl)-8-methyl-2-[3-(methylthio)anilino]pyrido[2,3-d]pyrimidin-7-one

> <PUBCHEM_IUPAC_INCHI>
InChI=1S/C21H16Cl2N4OS/c1-27-19-12(9-15(20(27)28)18-16(22)7-4-8-17(18)23)11-24-21(26-19)25-13-5-3-6-14(10-13)29-2/h3-11H,1-2H3,(H,24,25,26)

> <PUBCHEM_IUPAC_INCHIKEY>
VAARYSWULJUGST-UHFFFAOYSA-N

> <PUBCHEM_XLOGP3_AA>
5.4

> <PUBCHEM_EXACT_MASS>
442.042

> <PUBCHEM_MOLECULAR_FORMULA>
C21H16Cl2N4OS

> <PUBCHEM_MOLECULAR_WEIGHT>
443.346

> <PUBCHEM_OPENEYE_CAN_SMILES>
CN1C2=NC(=NC=C2C=C(C1=O)C3=C(C=CC=C3Cl)Cl)NC4=CC(=CC=C4)SC

> <PUBCHEM_OPENEYE_ISO_SMILES>
CN1C2=NC(=NC=C2C=C(C1=O)C3=C(C=CC=C3Cl)Cl)NC4=CC(=CC=C4)SC

> <PUBCHEM_CACTVS_TPSA>
83.4

> <PUBCHEM_MONOISOTOPIC_WEIGHT>
442.042

> <PUBCHEM_TOTAL_CHARGE>
0

> <PUBCHEM_HEAVY_ATOM_COUNT>
29

> <PUBCHEM_ATOM_DEF_STEREO_COUNT>
0

> <PUBCHEM_ATOM_UDEF_STEREO_COUNT>
0

> <PUBCHEM_BOND_DEF_STEREO_COUNT>
0

> <PUBCHEM_BOND_UDEF_STEREO_COUNT>
0

> <PUBCHEM_ISOTOPIC_ATOM_COUNT>
0

> <PUBCHEM_COMPONENT_COUNT>
1

> <PUBCHEM_CACTVS_TAUTO_COUNT>
5

> <PUBCHEM_COORDINATE_TYPE>
1
5
255

> <PUBCHEM_BONDANNOTATIONS>
10  11  8
11  13  8
11  16  8
14  18  8
14  19  8
18  21  8
19  22  8
20  24  8
20  25  8
21  23  8
22  23  8
24  26  8
25  27  8
26  28  8
27  28  8
5  10  8
5  12  8
6  10  8
6  17  8
8  16  8
8  17  8
9  12  8
9  13  8

$$$$
9915743
  -OEChem-11021605012D

 69 72  0     0  0  0  0  0  0999 V2000
   12.3739   -3.5022    0.0000 Cl  0  0  0  0  0  0  0  0  0  0  0  0
    7.1962    2.5522    0.0000 O   0  0  0  0  0  0  0  0  0  0  0  0
   14.1174   -2.5223    0.0000 O   0  0  0  0  0  0  0  0  0  0  0  0
    6.3301    2.0522    0.0000 O   0  0  0  0  0  0  0  0  0  0  0  0
   10.6766   -0.4824    0.0000 N   0  0  0  0  0  0  0  0  0  0  0  0
   10.6882    2.5869    0.0000 N   0  0  0  0  0  0  0  0  0  0  0  0
    7.1962    0.5522    0.0000 N   0  0  0  0  0  0  0  0  0  0  0  0
    2.8660    1.0522    0.0000 N   0  0  0  0  0  0  0  0  0  0  0  0
   13.3224    0.0247    0.0000 N   0  0  0  0  0  0  0  0  0  0  0  0
   15.8377   -3.5422    0.0000 N   0  0  0  0  0  0  0  0  0  0  0  0
    9.7942    1.0522    0.0000 C   0  0  0  0  0  0  0  0  0  0  0  0
   10.6882    0.5176    0.0000 C   0  0  0  0  0  0  0  0  0  0  0  0
    9.7942    2.0522    0.0000 C   0  0  0  0  0  0  0  0  0  0  0  0
    8.9282    0.5522    0.0000 C   0  0  0  0  0  0  0  0  0  0  0  0
    8.0622    1.0522    0.0000 C   0  0  0  0  0  0  0  0  0  0  0  0
    8.0622    2.0522    0.0000 C   0  0  0  0  0  0  0  0  0  0  0  0
    8.9282    2.5522    0.0000 C   0  0  0  0  0  0  0  0  0  0  0  0
   11.5942    1.0314    0.0000 C   0  0  0  0  0  0  0  0  0  0  0  0
   11.5368   -0.9923    0.0000 C   0  0  0  0  0  0  0  0  0  0  0  0
   11.5942    2.0730    0.0000 C   0  0  0  0  0  0  0  0  0  0  0  0
   11.5252   -1.9923    0.0000 C   0  0  0  0  0  0  0  0  0  0  0  0
   12.4085   -0.5024    0.0000 C   0  0  0  0  0  0  0  0  0  0  0  0
    7.1962    3.5522    0.0000 C   0  0  0  0  0  0  0  0  0  0  0  0
    6.3301    1.0522    0.0000 C   0  0  0  0  0  0  0  0  0  0  0  0
   13.2572   -2.0123    0.0000 C   0  0  0  0  0  0  0  0  0  0  0  0
   12.3854   -2.5023    0.0000 C   0  0  0  0  0  0  0  0  0  0  0  0
   13.2687   -1.0124    0.0000 C   0  0  0  0  0  0  0  0  0  0  0  0
   12.4583    0.5281    0.0000 C   0  0  0  0  0  0  0  0  0  0  0  0
    3.7320    0.5522    0.0000 C   0  0  0  0  0  0  0  0  0  0  0  0
    5.4641    0.5522    0.0000 C   0  0  0  0  0  0  0  0  0  0  0  0
    4.5981    1.0522    0.0000 C   0  0  0  0  0  0  0  0  0  0  0  0
    6.3301    4.0522    0.0000 C   0  0  0  0  0  0  0  0  0  0  0  0
   14.9891   -2.0323    0.0000 C   0  0  0  0  0  0  0  0  0  0  0  0
    2.0000    0.5522    0.0000 C   0  0  0  0  0  0  0  0  0  0  0  0
    2.8660    2.0522    0.0000 C   0  0  0  0  0  0  0  0  0  0  0  0
   15.8493   -2.5423    0.0000 C   0  0  0  0  0  0  0  0  0  0  0  0
   16.7210   -2.0524    0.0000 C   0  0  0  0  0  0  0  0  0  0  0  0
   17.5812   -2.5623    0.0000 C   0  0  0  0  0  0  0  0  0  0  0  0
   16.6979   -4.0522    0.0000 C   0  0  0  0  0  0  0  0  0  0  0  0
   17.5697   -3.5623    0.0000 C   0  0  0  0  0  0  0  0  0  0  0  0
    8.9282   -0.0678    0.0000 H   0  0  0  0  0  0  0  0  0  0  0  0
    8.9282    3.1722    0.0000 H   0  0  0  0  0  0  0  0  0  0  0  0
   10.1361   -0.7861    0.0000 H   0  0  0  0  0  0  0  0  0  0  0  0
   12.1300    2.3851    0.0000 H   0  0  0  0  0  0  0  0  0  0  0  0
    7.1962   -0.0678    0.0000 H   0  0  0  0  0  0  0  0  0  0  0  0
   10.9847   -2.2960    0.0000 H   0  0  0  0  0  0  0  0  0  0  0  0
   12.4157    0.1176    0.0000 H   0  0  0  0  0  0  0  0  0  0  0  0
    7.8067    3.4446    0.0000 H   0  0  0  0  0  0  0  0  0  0  0  0
    7.4082    4.1348    0.0000 H   0  0  0  0  0  0  0  0  0  0  0  0
   13.8092   -0.7086    0.0000 H   0  0  0  0  0  0  0  0  0  0  0  0
    3.3335    0.0773    0.0000 H   0  0  0  0  0  0  0  0  0  0  0  0
    4.1306    0.0773    0.0000 H   0  0  0  0  0  0  0  0  0  0  0  0
    5.4641   -0.0678    0.0000 H   0  0  0  0  0  0  0  0  0  0  0  0
    4.5981    1.6722    0.0000 H   0  0  0  0  0  0  0  0  0  0  0  0
    6.6401    4.5892    0.0000 H   0  0  0  0  0  0  0  0  0  0  0  0
    5.7932    4.3622    0.0000 H   0  0  0  0  0  0  0  0  0  0  0  0
    6.0201    3.5153    0.0000 H   0  0  0  0  0  0  0  0  0  0  0  0
   15.3931   -1.5620    0.0000 H   0  0  0  0  0  0  0  0  0  0  0  0
   14.5961   -1.5528    0.0000 H   0  0  0  0  0  0  0  0  0  0  0  0
    1.6900    1.0892    0.0000 H   0  0  0  0  0  0  0  0  0  0  0  0
    1.4631    0.2422    0.0000 H   0  0  0  0  0  0  0  0  0  0  0  0
    2.3100    0.0153    0.0000 H   0  0  0  0  0  0  0  0  0  0  0  0
    3.4860    2.0522    0.0000 H   0  0  0  0  0  0  0  0  0  0  0  0
    2.8660    2.6722    0.0000 H   0  0  0  0  0  0  0  0  0  0  0  0
    2.2460    2.0522    0.0000 H   0  0  0  0  0  0  0  0  0  0  0  0
   16.7282   -1.4324    0.0000 H   0  0  0  0  0  0  0  0  0  0  0  0
   18.1217   -2.2586    0.0000 H   0  0  0  0  0  0  0  0  0  0  0  0
   16.6907   -4.6722    0.0000 H   0  0  0  0  0  0  0  0  0  0  0  0
   18.1030   -3.8785    0.0000 H   0  0  0  0  0  0  0  0  0  0  0  0
  1 26  1  0  0  0  0
  2 16  1  0  0  0  0
  2 23  1  0  0  0  0
  3 25  1  0  0  0  0
  3 33  1  0  0  0  0
  4 24  2  0  0  0  0
  5 12  1  0  0  0  0
  5 19  1  0  0  0  0
  5 43  1  0  0  0  0
  6 13  1  0  0  0  0
  6 20  2  0  0  0  0
  7 15  1  0  0  0  0
  7 24  1  0  0  0  0
  7 45  1  0  0  0  0
  8 29  1  0  0  0  0
  8 34  1  0  0  0  0
  8 35  1  0  0  0  0
  9 28  3  0  0  0  0
 10 36  1  0  0  0  0
 10 39  2  0  0  0  0
 11 12  1  0  0  0  0
 11 13  1  0  0  0  0
 11 14  2  0  0  0  0
 12 18  2  0  0  0  0
 13 17  2  0  0  0  0
 14 15  1  0  0  0  0
 14 41  1  0  0  0  0
 15 16  2  0  0  0  0
 16 17  1  0  0  0  0
 17 42  1  0  0  0  0
 18 20  1  0  0  0  0
 18 28  1  0  0  0  0
 19 21  2  0  0  0  0
 19 22  1  0  0  0  0
 20 44  1  0  0  0  0
 21 26  1  0  0  0  0
 21 46  1  0  0  0  0
 22 27  2  0  0  0  0
 22 47  1  0  0  0  0
 23 32  1  0  0  0  0
 23 48  1  0  0  0  0
 23 49  1  0  0  0  0
 24 30  1  0  0  0  0
 25 26  2  0  0  0  0
 25 27  1  0  0  0  0
 27 50  1  0  0  0  0
 29 31  1  0  0  0  0
 29 51  1  0  0  0  0
 29 52  1  0  0  0  0
 30 31  2  0  0  0  0
 30 53  1  0  0  0  0
 31 54  1  0  0  0  0
 32 55  1  0  0  0  0
 32 56  1  0  0  0  0
 32 57  1  0  0  0  0
 33 36  1  0  0  0  0
 33 58  1  0  0  0  0
 33 59  1  0  0  0  0
 34 60  1  0  0  0  0
 34 61  1  0  0  0  0
 34 62  1  0  0  0  0
 35 63  1  0  0  0  0
 35 64  1  0  0  0  0
 35 65  1  0  0  0  0
 36 37  2  0  0  0  0
 37 38  1  0  0  0  0
 37 66  1  0  0  0  0
 38 40  2  0  0  0  0
 38 67  1  0  0  0  0
 39 40  1  0  0  0  0
 39 68  1  0  0  0  0
 40 69  1  0  0  0  0
M  END
> <PUBCHEM_COMPOUND_CID>
9915743

> <PUBCHEM_COMPOUND_CANONICALIZED>
1

> <PUBCHEM_CACTVS_COMPLEXITY>
881

> <PUBCHEM_CACTVS_HBOND_ACCEPTOR>
8

> <PUBCHEM_CACTVS_HBOND_DONOR>
2

> <PUBCHEM_CACTVS_ROTATABLE_BOND>
11

> <PUBCHEM_CACTVS_SUBSKEYS>
AAADceB7sAAEAAAAAAAAAAAAAAAAAAAAAAA8eIEAAAAAAACx/AAAHgIQAAAADA7hniY+xvPIFAC4BzV3VASiiCAxJ2AI2CA/b9gOpuPF89uHPCjm1BnY6Y+w0OMOIECAQgICGABAgQCEBAQwAAAAAAAAAA==

> <PUBCHEM_IUPAC_OPENEYE_NAME>
(E)-N-[4-[3-chloro-4-(2-pyridylmethoxy)anilino]-3-cyano-7-ethoxy-6-quinolyl]-4-(dimethylamino)but-2-enamide

> <PUBCHEM_IUPAC_CAS_NAME>
(E)-N-[4-[3-chloro-4-(2-pyridinylmethoxy)anilino]-3-cyano-7-ethoxy-6-quinolinyl]-4-(dimethylamino)-2-butenamide

> <PUBCHEM_IUPAC_NAME>
(E)-N-[4-[3-chloro-4-(pyridin-2-ylmethoxy)anilino]-3-cyano-7-ethoxyquinolin-6-yl]-4-(dimethylamino)but-2-enamide

> <PUBCHEM_IUPAC_SYSTEMATIC_NAME>
(E)-N-[4-[[3-chloranyl-4-(pyridin-2-ylmethoxy)phenyl]amino]-3-cyano-7-ethoxy-quinolin-6-yl]-4-(dimethylamino)but-2-enamide

> <PUBCHEM_IUPAC_TRADITIONAL_NAME>
(E)-N-[4-[3-chloro-4-(2-pyridylmethoxy)anilino]-3-cyano-7-ethoxy-6-quinolyl]-4-(dimethylamino)but-2-enamide

> <PUBCHEM_IUPAC_INCHI>
InChI=1S/C30H29ClN6O3/c1-4-39-28-16-25-23(15-26(28)36-29(38)9-7-13-37(2)3)30(20(17-32)18-34-25)35-21-10-11-27(24(31)14-21)40-19-22-8-5-6-12-33-22/h5-12,14-16,18H,4,13,19H2,1-3H3,(H,34,35)(H,36,38)/b9-7+

> <PUBCHEM_IUPAC_INCHIKEY>
JWNPDZNEKVCWMY-VQHVLOKHSA-N

> <PUBCHEM_XLOGP3_AA>
4.9

> <PUBCHEM_EXACT_MASS>
556.199

> <PUBCHEM_MOLECULAR_FORMULA>
C30H29ClN6O3

> <PUBCHEM_MOLECULAR_WEIGHT>
557.051

> <PUBCHEM_OPENEYE_CAN_SMILES>
CCOC1=C(C=C2C(=C1)N=CC(=C2NC3=CC(=C(C=C3)OCC4=CC=CC=N4)Cl)C#N)NC(=O)C=CCN(C)C

> <PUBCHEM_OPENEYE_ISO_SMILES>
CCOC1=C(C=C2C(=C1)N=CC(=C2NC3=CC(=C(C=C3)OCC4=CC=CC=N4)Cl)C#N)NC(=O)/C=C/CN(C)C

> <PUBCHEM_CACTVS_TPSA>
112

> <PUBCHEM_MONOISOTOPIC_WEIGHT>
556.199

> <PUBCHEM_TOTAL_CHARGE>
0

> <PUBCHEM_HEAVY_ATOM_COUNT>
40

> <PUBCHEM_ATOM_DEF_STEREO_COUNT>
0

> <PUBCHEM_ATOM_UDEF_STEREO_COUNT>
0

> <PUBCHEM_BOND_DEF_STEREO_COUNT>
1

> <PUBCHEM_BOND_UDEF_STEREO_COUNT>
0

> <PUBCHEM_ISOTOPIC_ATOM_COUNT>
0

> <PUBCHEM_COMPONENT_COUNT>
1

> <PUBCHEM_CACTVS_TAUTO_COUNT>
6

> <PUBCHEM_COORDINATE_TYPE>
1
5
255

> <PUBCHEM_BONDANNOTATIONS>
10  36  8
10  39  8
11  12  8
11  13  8
11  14  8
12  18  8
13  17  8
14  15  8
15  16  8
16  17  8
18  20  8
19  21  8
19  22  8
21  26  8
22  27  8
25  26  8
25  27  8
36  37  8
37  38  8
38  40  8
39  40  8
6  13  8
6  20  8

$$$$
16725726
  -OEChem-11021605012D

 58 61  0     1  0  0  0  0  0999 V2000
    4.2690    1.9050    0.0000 O   0  0  0  0  0  0  0  0  0  0  0  0
    9.2037    0.4050    0.0000 O   0  0  0  0  0  0  0  0  0  0  0  0
    4.2690   -5.0950    0.0000 O   0  0  0  0  0  0  0  0  0  0  0  0
    2.5369    4.9050    0.0000 N   0  0  0  0  0  0  0  0  0  0  0  0
    6.0812    0.7097    0.0000 N   0  0  0  0  0  0  0  0  0  0  0  0
    6.0812   -0.8997    0.0000 N   0  0  0  0  0  0  0  0  0  0  0  0
    3.4030   -0.5950    0.0000 N   0  0  0  0  0  0  0  0  0  0  0  0
    8.2526    0.7140    0.0000 N   0  0  0  0  0  0  0  0  0  0  0  0
    9.2037   -0.5950    0.0000 N   0  0  0  0  0  0  0  0  0  0  0  0
    7.9436   -1.8551    0.0000 N   0  0  0  0  0  0  0  0  0  0  0  0
    3.4030    3.4050    0.0000 C   0  0  1  0  0  0  0  0  0  0  0  0
    4.2690    3.9050    0.0000 C   0  0  0  0  0  0  0  0  0  0  0  0
    2.5369    3.9050    0.0000 C   0  0  0  0  0  0  0  0  0  0  0  0
    4.2690    4.9050    0.0000 C   0  0  0  0  0  0  0  0  0  0  0  0
    3.4030    5.4050    0.0000 C   0  0  0  0  0  0  0  0  0  0  0  0
    3.4030    2.4050    0.0000 C   0  0  0  0  0  0  0  0  0  0  0  0
    4.2690    0.9050    0.0000 C   0  0  0  0  0  0  0  0  0  0  0  0
    5.1350    0.4050    0.0000 C   0  0  0  0  0  0  0  0  0  0  0  0
    5.1350   -0.5950    0.0000 C   0  0  0  0  0  0  0  0  0  0  0  0
    6.6648   -0.0950    0.0000 C   0  0  0  0  0  0  0  0  0  0  0  0
    6.3919    1.6602    0.0000 C   0  0  0  0  0  0  0  0  0  0  0  0
    3.4030    0.4050    0.0000 C   0  0  0  0  0  0  0  0  0  0  0  0
    4.2690   -1.0950    0.0000 C   0  0  0  0  0  0  0  0  0  0  0  0
    7.6648   -0.0950    0.0000 C   0  0  0  0  0  0  0  0  0  0  0  0
    7.3704    1.8665    0.0000 C   0  0  0  0  0  0  0  0  0  0  0  0
    8.2526   -0.9040    0.0000 C   0  0  0  0  0  0  0  0  0  0  0  0
    4.2690   -2.0950    0.0000 C   0  0  0  0  0  0  0  0  0  0  0  0
    4.2690   -4.0950    0.0000 C   0  0  0  0  0  0  0  0  0  0  0  0
    4.2690   -3.0950    0.0000 C   0  0  0  0  0  0  0  0  0  0  0  0
    3.2690   -4.0950    0.0000 C   0  0  0  0  0  0  0  0  0  0  0  0
    5.2690   -4.0950    0.0000 C   0  0  0  0  0  0  0  0  0  0  0  0
    3.9399    3.0950    0.0000 H   0  0  0  0  0  0  0  0  0  0  0  0
    4.4810    3.3224    0.0000 H   0  0  0  0  0  0  0  0  0  0  0  0
    4.8796    4.0127    0.0000 H   0  0  0  0  0  0  0  0  0  0  0  0
    1.9264    4.0127    0.0000 H   0  0  0  0  0  0  0  0  0  0  0  0
    2.3249    3.3224    0.0000 H   0  0  0  0  0  0  0  0  0  0  0  0
    4.8796    4.7973    0.0000 H   0  0  0  0  0  0  0  0  0  0  0  0
    4.4810    5.4876    0.0000 H   0  0  0  0  0  0  0  0  0  0  0  0
    3.8015    5.8800    0.0000 H   0  0  0  0  0  0  0  0  0  0  0  0
    3.0044    5.8800    0.0000 H   0  0  0  0  0  0  0  0  0  0  0  0
    2.7924    2.5127    0.0000 H   0  0  0  0  0  0  0  0  0  0  0  0
    3.1909    1.8224    0.0000 H   0  0  0  0  0  0  0  0  0  0  0  0
    2.0000    5.2150    0.0000 H   0  0  0  0  0  0  0  0  0  0  0  0
    6.3713    2.2799    0.0000 H   0  0  0  0  0  0  0  0  0  0  0  0
    5.7781    1.7476    0.0000 H   0  0  0  0  0  0  0  0  0  0  0  0
    2.8660    0.7150    0.0000 H   0  0  0  0  0  0  0  0  0  0  0  0
    7.4983    1.2598    0.0000 H   0  0  0  0  0  0  0  0  0  0  0  0
    7.9771    1.9943    0.0000 H   0  0  0  0  0  0  0  0  0  0  0  0
    7.2425    2.4732    0.0000 H   0  0  0  0  0  0  0  0  0  0  0  0
    3.2690   -3.4750    0.0000 H   0  0  0  0  0  0  0  0  0  0  0  0
    2.6490   -4.0950    0.0000 H   0  0  0  0  0  0  0  0  0  0  0  0
    3.2690   -4.7150    0.0000 H   0  0  0  0  0  0  0  0  0  0  0  0
    5.2690   -4.7150    0.0000 H   0  0  0  0  0  0  0  0  0  0  0  0
    5.8890   -4.0950    0.0000 H   0  0  0  0  0  0  0  0  0  0  0  0
    5.2690   -3.4750    0.0000 H   0  0  0  0  0  0  0  0  0  0  0  0
    8.3585   -2.3158    0.0000 H   0  0  0  0  0  0  0  0  0  0  0  0
    7.3372   -1.9840    0.0000 H   0  0  0  0  0  0  0  0  0  0  0  0
    3.7320   -5.4050    0.0000 H   0  0  0  0  0  0  0  0  0  0  0  0
  1 16  1  0  0  0  0
  1 17  1  0  0  0  0
  2  8  1  0  0  0  0
  2  9  1  0  0  0  0
  3 28  1  0  0  0  0
  3 58  1  0  0  0  0
  4 13  1  0  0  0  0
  4 15  1  0  0  0  0
  4 43  1  0  0  0  0
  5 18  1  0  0  0  0
  5 20  1  0  0  0  0
  5 21  1  0  0  0  0
  6 19  1  0  0  0  0
  6 20  2  0  0  0  0
  7 22  1  0  0  0  0
  7 23  2  0  0  0  0
  8 24  2  0  0  0  0
  9 26  2  0  0  0  0
 10 26  1  0  0  0  0
 10 56  1  0  0  0  0
 10 57  1  0  0  0  0
 11 12  1  0  0  0  0
 11 13  1  0  0  0  0
 11 16  1  6  0  0  0
 11 32  1  0  0  0  0
 12 14  1  0  0  0  0
 12 33  1  0  0  0  0
 12 34  1  0  0  0  0
 13 35  1  0  0  0  0
 13 36  1  0  0  0  0
 14 15  1  0  0  0  0
 14 37  1  0  0  0  0
 14 38  1  0  0  0  0
 15 39  1  0  0  0  0
 15 40  1  0  0  0  0
 16 41  1  0  0  0  0
 16 42  1  0  0  0  0
 17 18  1  0  0  0  0
 17 22  2  0  0  0  0
 18 19  2  0  0  0  0
 19 23  1  0  0  0  0
 20 24  1  0  0  0  0
 21 25  1  0  0  0  0
 21 44  1  0  0  0  0
 21 45  1  0  0  0  0
 22 46  1  0  0  0  0
 23 27  1  0  0  0  0
 24 26  1  0  0  0  0
 25 47  1  0  0  0  0
 25 48  1  0  0  0  0
 25 49  1  0  0  0  0
 27 29  3  0  0  0  0
 28 29  1  0  0  0  0
 28 30  1  0  0  0  0
 28 31  1  0  0  0  0
 30 50  1  0  0  0  0
 30 51  1  0  0  0  0
 30 52  1  0  0  0  0
 31 53  1  0  0  0  0
 31 54  1  0  0  0  0
 31 55  1  0  0  0  0
M  END
> <PUBCHEM_COMPOUND_CID>
16725726

> <PUBCHEM_COMPOUND_CANONICALIZED>
1

> <PUBCHEM_CACTVS_COMPLEXITY>
680

> <PUBCHEM_CACTVS_HBOND_ACCEPTOR>
9

> <PUBCHEM_CACTVS_HBOND_DONOR>
3

> <PUBCHEM_CACTVS_ROTATABLE_BOND>
7

> <PUBCHEM_CACTVS_SUBSKEYS>
AAADceB7sAAAAAAAAAAAAAAAAAAAAWLAAAAsWAAAAAAAAFgB/gAAHgAUCAAADUzhlwYv9rfcFgDhERZnZgyCiC0xcKAh2KAvXJqObuLE+NuXPCju0JvY6CewEAIMAAAAAAAAAAAAAAAAAAAAAAAAAAAAAA==

> <PUBCHEM_IUPAC_OPENEYE_NAME>
4-[2-(4-amino-1,2,5-oxadiazol-3-yl)-1-ethyl-7-[[(3S)-3-piperidyl]methoxy]imidazo[4,5-c]pyridin-4-yl]-2-methyl-but-3-yn-2-ol

> <PUBCHEM_IUPAC_CAS_NAME>
4-[2-(4-amino-1,2,5-oxadiazol-3-yl)-1-ethyl-7-[[(3S)-3-piperidinyl]methoxy]-4-imidazo[4,5-c]pyridinyl]-2-methyl-3-butyn-2-ol

> <PUBCHEM_IUPAC_NAME>
4-[2-(4-amino-1,2,5-oxadiazol-3-yl)-1-ethyl-7-[[(3S)-piperidin-3-yl]methoxy]imidazo[4,5-c]pyridin-4-yl]-2-methylbut-3-yn-2-ol

> <PUBCHEM_IUPAC_SYSTEMATIC_NAME>
4-[2-(4-azanyl-1,2,5-oxadiazol-3-yl)-1-ethyl-7-[[(3S)-piperidin-3-yl]methoxy]imidazo[4,5-c]pyridin-4-yl]-2-methyl-but-3-yn-2-ol

> <PUBCHEM_IUPAC_TRADITIONAL_NAME>
4-[2-(4-aminofurazan-3-yl)-1-ethyl-7-[[(3S)-3-piperidyl]methoxy]imidazo[4,5-c]pyridin-4-yl]-2-methyl-but-3-yn-2-ol

> <PUBCHEM_IUPAC_INCHI>
InChI=1S/C21H27N7O3/c1-4-28-18-15(30-12-13-6-5-9-23-10-13)11-24-14(7-8-21(2,3)29)16(18)25-20(28)17-19(22)27-31-26-17/h11,13,23,29H,4-6,9-10,12H2,1-3H3,(H2,22,27)/t13-/m0/s1

> <PUBCHEM_IUPAC_INCHIKEY>
KGPGFQWBCSZGEL-ZDUSSCGKSA-N

> <PUBCHEM_XLOGP3_AA>
0.3

> <PUBCHEM_EXACT_MASS>
425.218

> <PUBCHEM_MOLECULAR_FORMULA>
C21H27N7O3

> <PUBCHEM_MOLECULAR_WEIGHT>
425.493

> <PUBCHEM_OPENEYE_CAN_SMILES>
CCN1C2=C(C(=NC=C2OCC3CCCNC3)C#CC(C)(C)O)N=C1C4=NON=C4N

> <PUBCHEM_OPENEYE_ISO_SMILES>
CCN1C2=C(C(=NC=C2OC[C@H]3CCCNC3)C#CC(C)(C)O)N=C1C4=NON=C4N

> <PUBCHEM_CACTVS_TPSA>
137

> <PUBCHEM_MONOISOTOPIC_WEIGHT>
425.218

> <PUBCHEM_TOTAL_CHARGE>
0

> <PUBCHEM_HEAVY_ATOM_COUNT>
31

> <PUBCHEM_ATOM_DEF_STEREO_COUNT>
1

> <PUBCHEM_ATOM_UDEF_STEREO_COUNT>
0

> <PUBCHEM_BOND_DEF_STEREO_COUNT>
0

> <PUBCHEM_BOND_UDEF_STEREO_COUNT>
0

> <PUBCHEM_ISOTOPIC_ATOM_COUNT>
0

> <PUBCHEM_COMPONENT_COUNT>
1

> <PUBCHEM_CACTVS_TAUTO_COUNT>
2

> <PUBCHEM_COORDINATE_TYPE>
1
5
255

> <PUBCHEM_BONDANNOTATIONS>
11  16  6
17  18  8
17  22  8
18  19  8
19  23  8
2  8  8
2  9  8
24  26  8
5  18  8
5  20  8
6  19  8
6  20  8
7  22  8
7  23  8
8  24  8
9  26  8

$$$$
9809715
  -OEChem-11021605012D

 73 77  0     0  0  0  0  0  0999 V2000
   10.5885    2.3338    0.0000 O   0  0  0  0  0  0  0  0  0  0  0  0
    7.9939   -2.8916    0.0000 O   0  0  0  0  0  0  0  0  0  0  0  0
    2.8660   -4.8916    0.0000 O   0  0  0  0  0  0  0  0  0  0  0  0
    2.0000   -3.3916    0.0000 O   0  0  0  0  0  0  0  0  0  0  0  0
   11.2098    4.2349    0.0000 N   0  0  0  0  0  0  0  0  0  0  0  0
   13.1668    4.6473    0.0000 N   0  0  0  0  0  0  0  0  0  0  0  0
    8.9421    2.8719    0.0000 N   0  0  0  0  0  0  0  0  0  0  0  0
    7.6995   -0.9302    0.0000 N   0  0  0  0  0  0  0  0  0  0  0  0
    6.4103   -3.6964    0.0000 N   0  0  0  0  0  0  0  0  0  0  0  0
   11.8777    3.4906    0.0000 C   0  0  0  0  0  0  0  0  0  0  0  0
   11.5205    5.1854    0.0000 C   0  0  0  0  0  0  0  0  0  0  0  0
   12.8562    3.6968    0.0000 C   0  0  0  0  0  0  0  0  0  0  0  0
   12.4990    5.3916    0.0000 C   0  0  0  0  0  0  0  0  0  0  0  0
   10.2313    4.0287    0.0000 C   0  0  0  0  0  0  0  0  0  0  0  0
   14.1453    4.8535    0.0000 C   0  0  0  0  0  0  0  0  0  0  0  0
    9.9206    3.0782    0.0000 C   0  0  0  0  0  0  0  0  0  0  0  0
    8.6315    1.9214    0.0000 C   0  0  0  0  0  0  0  0  0  0  0  0
    8.2743    3.6162    0.0000 C   0  0  0  0  0  0  0  0  0  0  0  0
    6.4103   -2.0869    0.0000 C   0  0  0  0  0  0  0  0  0  0  0  0
    5.4641   -2.3916    0.0000 C   0  0  0  0  0  0  0  0  0  0  0  0
    6.7210   -1.1364    0.0000 C   0  0  0  0  0  0  0  0  0  0  0  0
    5.4641   -3.3916    0.0000 C   0  0  0  0  0  0  0  0  0  0  0  0
    7.6530    1.7152    0.0000 C   0  0  0  0  0  0  0  0  0  0  0  0
    9.2993    1.1771    0.0000 C   0  0  0  0  0  0  0  0  0  0  0  0
    8.0102    0.0204    0.0000 C   0  0  0  0  0  0  0  0  0  0  0  0
    6.9939   -2.8916    0.0000 C   0  0  0  0  0  0  0  0  0  0  0  0
    7.3423    0.7647    0.0000 C   0  0  0  0  0  0  0  0  0  0  0  0
    8.9887    0.2266    0.0000 C   0  0  0  0  0  0  0  0  0  0  0  0
    6.0531   -0.3921    0.0000 C   0  0  0  0  0  0  0  0  0  0  0  0
    4.5981   -1.8916    0.0000 C   0  0  0  0  0  0  0  0  0  0  0  0
    4.5981   -3.8916    0.0000 C   0  0  0  0  0  0  0  0  0  0  0  0
    3.7320   -3.3916    0.0000 C   0  0  0  0  0  0  0  0  0  0  0  0
    3.7320   -2.3916    0.0000 C   0  0  0  0  0  0  0  0  0  0  0  0
    6.3638    0.5584    0.0000 C   0  0  0  0  0  0  0  0  0  0  0  0
    5.0746   -0.5983    0.0000 C   0  0  0  0  0  0  0  0  0  0  0  0
    2.8660   -3.8916    0.0000 C   0  0  0  0  0  0  0  0  0  0  0  0
    5.6960    1.3028    0.0000 C   0  0  0  0  0  0  0  0  0  0  0  0
    4.4068    0.1460    0.0000 C   0  0  0  0  0  0  0  0  0  0  0  0
    4.7175    1.0965    0.0000 C   0  0  0  0  0  0  0  0  0  0  0  0
    2.0000   -5.3916    0.0000 C   0  0  0  0  0  0  0  0  0  0  0  0
   11.4999    5.8051    0.0000 H   0  0  0  0  0  0  0  0  0  0  0  0
   10.9067    5.2728    0.0000 H   0  0  0  0  0  0  0  0  0  0  0  0
   11.3513    3.1629    0.0000 H   0  0  0  0  0  0  0  0  0  0  0  0
   12.1089    2.9153    0.0000 H   0  0  0  0  0  0  0  0  0  0  0  0
   13.0253    5.7193    0.0000 H   0  0  0  0  0  0  0  0  0  0  0  0
   12.2677    5.9669    0.0000 H   0  0  0  0  0  0  0  0  0  0  0  0
   12.8767    3.0771    0.0000 H   0  0  0  0  0  0  0  0  0  0  0  0
   13.4700    3.6094    0.0000 H   0  0  0  0  0  0  0  0  0  0  0  0
   10.2107    4.6483    0.0000 H   0  0  0  0  0  0  0  0  0  0  0  0
    9.6175    4.1160    0.0000 H   0  0  0  0  0  0  0  0  0  0  0  0
   14.2732    4.2469    0.0000 H   0  0  0  0  0  0  0  0  0  0  0  0
   14.7520    4.9814    0.0000 H   0  0  0  0  0  0  0  0  0  0  0  0
   14.0175    5.4602    0.0000 H   0  0  0  0  0  0  0  0  0  0  0  0
    8.7358    4.0303    0.0000 H   0  0  0  0  0  0  0  0  0  0  0  0
    7.8602    4.0777    0.0000 H   0  0  0  0  0  0  0  0  0  0  0  0
    7.8128    3.2022    0.0000 H   0  0  0  0  0  0  0  0  0  0  0  0
    7.2389    2.1767    0.0000 H   0  0  0  0  0  0  0  0  0  0  0  0
    9.9060    1.3050    0.0000 H   0  0  0  0  0  0  0  0  0  0  0  0
    8.1136   -1.3916    0.0000 H   0  0  0  0  0  0  0  0  0  0  0  0
    6.6029   -4.2857    0.0000 H   0  0  0  0  0  0  0  0  0  0  0  0
    6.7356    0.6368    0.0000 H   0  0  0  0  0  0  0  0  0  0  0  0
    9.4027   -0.2349    0.0000 H   0  0  0  0  0  0  0  0  0  0  0  0
    4.5981   -1.2716    0.0000 H   0  0  0  0  0  0  0  0  0  0  0  0
    4.5981   -4.5116    0.0000 H   0  0  0  0  0  0  0  0  0  0  0  0
    3.1951   -2.0816    0.0000 H   0  0  0  0  0  0  0  0  0  0  0  0
    6.9705    0.6863    0.0000 H   0  0  0  0  0  0  0  0  0  0  0  0
    4.8820   -1.1876    0.0000 H   0  0  0  0  0  0  0  0  0  0  0  0
    5.8886    1.8921    0.0000 H   0  0  0  0  0  0  0  0  0  0  0  0
    3.8001    0.0182    0.0000 H   0  0  0  0  0  0  0  0  0  0  0  0
    4.3034    1.5580    0.0000 H   0  0  0  0  0  0  0  0  0  0  0  0
    1.6900   -4.8547    0.0000 H   0  0  0  0  0  0  0  0  0  0  0  0
    1.4631   -5.7016    0.0000 H   0  0  0  0  0  0  0  0  0  0  0  0
    2.3100   -5.9286    0.0000 H   0  0  0  0  0  0  0  0  0  0  0  0
  1 16  2  0  0  0  0
  2 26  2  0  0  0  0
  3 36  1  0  0  0  0
  3 40  1  0  0  0  0
  4 36  2  0  0  0  0
  5 10  1  0  0  0  0
  5 11  1  0  0  0  0
  5 14  1  0  0  0  0
  6 12  1  0  0  0  0
  6 13  1  0  0  0  0
  6 15  1  0  0  0  0
  7 16  1  0  0  0  0
  7 17  1  0  0  0  0
  7 18  1  0  0  0  0
  8 21  1  0  0  0  0
  8 25  1  0  0  0  0
  8 59  1  0  0  0  0
  9 22  1  0  0  0  0
  9 26  1  0  0  0  0
  9 60  1  0  0  0  0
 10 12  1  0  0  0  0
 10 43  1  0  0  0  0
 10 44  1  0  0  0  0
 11 13  1  0  0  0  0
 11 41  1  0  0  0  0
 11 42  1  0  0  0  0
 12 47  1  0  0  0  0
 12 48  1  0  0  0  0
 13 45  1  0  0  0  0
 13 46  1  0  0  0  0
 14 16  1  0  0  0  0
 14 49  1  0  0  0  0
 14 50  1  0  0  0  0
 15 51  1  0  0  0  0
 15 52  1  0  0  0  0
 15 53  1  0  0  0  0
 17 23  2  0  0  0  0
 17 24  1  0  0  0  0
 18 54  1  0  0  0  0
 18 55  1  0  0  0  0
 18 56  1  0  0  0  0
 19 20  1  0  0  0  0
 19 21  2  0  0  0  0
 19 26  1  0  0  0  0
 20 22  2  0  0  0  0
 20 30  1  0  0  0  0
 21 29  1  0  0  0  0
 22 31  1  0  0  0  0
 23 27  1  0  0  0  0
 23 57  1  0  0  0  0
 24 28  2  0  0  0  0
 24 58  1  0  0  0  0
 25 27  2  0  0  0  0
 25 28  1  0  0  0  0
 27 61  1  0  0  0  0
 28 62  1  0  0  0  0
 29 34  2  0  0  0  0
 29 35  1  0  0  0  0
 30 33  2  0  0  0  0
 30 63  1  0  0  0  0
 31 32  2  0  0  0  0
 31 64  1  0  0  0  0
 32 33  1  0  0  0  0
 32 36  1  0  0  0  0
 33 65  1  0  0  0  0
 34 37  1  0  0  0  0
 34 66  1  0  0  0  0
 35 38  2  0  0  0  0
 35 67  1  0  0  0  0
 37 39  2  0  0  0  0
 37 68  1  0  0  0  0
 38 39  1  0  0  0  0
 38 69  1  0  0  0  0
 39 70  1  0  0  0  0
 40 71  1  0  0  0  0
 40 72  1  0  0  0  0
 40 73  1  0  0  0  0
M  END
> <PUBCHEM_COMPOUND_CID>
9809715

> <PUBCHEM_COMPOUND_CANONICALIZED>
1

> <PUBCHEM_CACTVS_COMPLEXITY>
947

> <PUBCHEM_CACTVS_HBOND_ACCEPTOR>
7

> <PUBCHEM_CACTVS_HBOND_DONOR>
2

> <PUBCHEM_CACTVS_ROTATABLE_BOND>
8

> <PUBCHEM_CACTVS_SUBSKEYS>
AAADcfB7uAAAAAAAAAAAAAAAAAAAAWAAAAA8YMEAAAAAAFgBUAAAHgAQAAAADAjBmAYyyIPABACIAiXSWACCAAAlAgAIiAGIbMgIZjLAtbmUMQhk1gHI6ce8yPCOQACAQAACAACAAQCAAAQAAAAAAAAAAA==

> <PUBCHEM_IUPAC_OPENEYE_NAME>
methyl (3Z)-3-[[4-[methyl-[2-(4-methylpiperazin-1-yl)acetyl]amino]anilino]-phenyl-methylene]-2-oxo-indoline-6-carboxylate

> <PUBCHEM_IUPAC_CAS_NAME>
(3Z)-3-[[4-[methyl-[2-(4-methyl-1-piperazinyl)-1-oxoethyl]amino]anilino]-phenylmethylidene]-2-oxo-1H-indole-6-carboxylic acid methyl ester

> <PUBCHEM_IUPAC_NAME>
methyl (3Z)-3-[[4-[methyl-[2-(4-methylpiperazin-1-yl)acetyl]amino]anilino]-phenylmethylidene]-2-oxo-1H-indole-6-carboxylate

> <PUBCHEM_IUPAC_SYSTEMATIC_NAME>
methyl (3Z)-3-[[[4-[methyl-[2-(4-methylpiperazin-1-yl)ethanoyl]amino]phenyl]amino]-phenyl-methylidene]-2-oxidanylidene-1H-indole-6-carboxylate

> <PUBCHEM_IUPAC_TRADITIONAL_NAME>
(3Z)-2-keto-3-[[4-[methyl-[2-(4-methylpiperazino)acetyl]amino]anilino]-phenyl-methylene]indoline-6-carboxylic acid methyl ester

> <PUBCHEM_IUPAC_INCHI>
InChI=1S/C31H33N5O4/c1-34-15-17-36(18-16-34)20-27(37)35(2)24-12-10-23(11-13-24)32-29(21-7-5-4-6-8-21)28-25-14-9-22(31(39)40-3)19-26(25)33-30(28)38/h4-14,19,32H,15-18,20H2,1-3H3,(H,33,38)/b29-28-

> <PUBCHEM_IUPAC_INCHIKEY>
XZXHXSATPCNXJR-ZIADKAODSA-N

> <PUBCHEM_XLOGP3_AA>
3.3

> <PUBCHEM_EXACT_MASS>
539.253

> <PUBCHEM_MOLECULAR_FORMULA>
C31H33N5O4

> <PUBCHEM_MOLECULAR_WEIGHT>
539.636

> <PUBCHEM_OPENEYE_CAN_SMILES>
CN1CCN(CC1)CC(=O)N(C)C2=CC=C(C=C2)NC(=C3C4=C(C=C(C=C4)C(=O)OC)NC3=O)C5=CC=CC=C5

> <PUBCHEM_OPENEYE_ISO_SMILES>
CN1CCN(CC1)CC(=O)N(C)C2=CC=C(C=C2)N/C(=C\3/C4=C(C=C(C=C4)C(=O)OC)NC3=O)/C5=CC=CC=C5

> <PUBCHEM_CACTVS_TPSA>
94.2

> <PUBCHEM_MONOISOTOPIC_WEIGHT>
539.253

> <PUBCHEM_TOTAL_CHARGE>
0

> <PUBCHEM_HEAVY_ATOM_COUNT>
40

> <PUBCHEM_ATOM_DEF_STEREO_COUNT>
0

> <PUBCHEM_ATOM_UDEF_STEREO_COUNT>
0

> <PUBCHEM_BOND_DEF_STEREO_COUNT>
1

> <PUBCHEM_BOND_UDEF_STEREO_COUNT>
0

> <PUBCHEM_ISOTOPIC_ATOM_COUNT>
0

> <PUBCHEM_COMPONENT_COUNT>
1

> <PUBCHEM_CACTVS_TAUTO_COUNT>
9

> <PUBCHEM_COORDINATE_TYPE>
1
5
255

> <PUBCHEM_BONDANNOTATIONS>
17  23  8
17  24  8
20  22  8
20  30  8
22  31  8
23  27  8
24  28  8
25  27  8
25  28  8
29  34  8
29  35  8
30  33  8
31  32  8
32  33  8
34  37  8
35  38  8
37  39  8
38  39  8

$$$$
11338033
  -OEChem-11021605012D

 42 44  0     0  0  0  0  0  0999 V2000
    2.0000   -1.2702    0.0000 Cl  0  0  0  0  0  0  0  0  0  0  0  0
    5.4641   -1.2702    0.0000 Cl  0  0  0  0  0  0  0  0  0  0  0  0
    6.5661    0.5304    0.0000 O   0  0  0  0  0  0  0  0  0  0  0  0
    2.8660    0.2298    0.0000 O   0  0  0  0  0  0  0  0  0  0  0  0
    9.9545    1.2506    0.0000 N   0  0  0  0  0  0  0  0  0  0  0  0
    7.1013    2.1777    0.0000 N   0  0  0  0  0  0  0  0  0  0  0  0
    5.0981    2.7686    0.0000 N   0  0  0  0  0  0  0  0  0  0  0  0
    4.5981    0.2298    0.0000 N   0  0  0  0  0  0  0  0  0  0  0  0
    4.0981    2.7686    0.0000 N   0  0  0  0  0  0  0  0  0  0  0  0
    8.0524    1.8687    0.0000 C   0  0  0  0  0  0  0  0  0  0  0  0
    8.7955    2.5378    0.0000 C   0  0  0  0  0  0  0  0  0  0  0  0
    8.2603    0.8905    0.0000 C   0  0  0  0  0  0  0  0  0  0  0  0
    9.7465    2.2288    0.0000 C   0  0  0  0  0  0  0  0  0  0  0  0
    9.2113    0.5815    0.0000 C   0  0  0  0  0  0  0  0  0  0  0  0
    6.3582    1.5086    0.0000 C   0  0  0  0  0  0  0  0  0  0  0  0
    5.4071    1.8176    0.0000 C   0  0  0  0  0  0  0  0  0  0  0  0
    4.5981    1.2298    0.0000 C   0  0  0  0  0  0  0  0  0  0  0  0
    3.7891    1.8176    0.0000 C   0  0  0  0  0  0  0  0  0  0  0  0
    3.7320   -0.2702    0.0000 C   0  0  0  0  0  0  0  0  0  0  0  0
    3.7320   -1.2702    0.0000 C   0  0  0  0  0  0  0  0  0  0  0  0
    2.8660   -1.7702    0.0000 C   0  0  0  0  0  0  0  0  0  0  0  0
    4.5981   -1.7702    0.0000 C   0  0  0  0  0  0  0  0  0  0  0  0
    2.8660   -2.7702    0.0000 C   0  0  0  0  0  0  0  0  0  0  0  0
    4.5981   -2.7702    0.0000 C   0  0  0  0  0  0  0  0  0  0  0  0
    3.7320   -3.2702    0.0000 C   0  0  0  0  0  0  0  0  0  0  0  0
    7.9234    2.4751    0.0000 H   0  0  0  0  0  0  0  0  0  0  0  0
    9.0866    3.0852    0.0000 H   0  0  0  0  0  0  0  0  0  0  0  0
    8.3069    2.9195    0.0000 H   0  0  0  0  0  0  0  0  0  0  0  0
    7.6406    0.8689    0.0000 H   0  0  0  0  0  0  0  0  0  0  0  0
    8.1740    0.2766    0.0000 H   0  0  0  0  0  0  0  0  0  0  0  0
   10.3662    2.2504    0.0000 H   0  0  0  0  0  0  0  0  0  0  0  0
    9.8328    2.8428    0.0000 H   0  0  0  0  0  0  0  0  0  0  0  0
    8.9202    0.0341    0.0000 H   0  0  0  0  0  0  0  0  0  0  0  0
    9.6999    0.1998    0.0000 H   0  0  0  0  0  0  0  0  0  0  0  0
   10.5441    1.0590    0.0000 H   0  0  0  0  0  0  0  0  0  0  0  0
    6.9724    2.7841    0.0000 H   0  0  0  0  0  0  0  0  0  0  0  0
    5.4625    3.2702    0.0000 H   0  0  0  0  0  0  0  0  0  0  0  0
    3.1994    1.6260    0.0000 H   0  0  0  0  0  0  0  0  0  0  0  0
    5.1350   -0.0802    0.0000 H   0  0  0  0  0  0  0  0  0  0  0  0
    2.3291   -3.0802    0.0000 H   0  0  0  0  0  0  0  0  0  0  0  0
    5.1350   -3.0802    0.0000 H   0  0  0  0  0  0  0  0  0  0  0  0
    3.7320   -3.8902    0.0000 H   0  0  0  0  0  0  0  0  0  0  0  0
  1 21  1  0  0  0  0
  2 22  1  0  0  0  0
  3 15  2  0  0  0  0
  4 19  2  0  0  0  0
  5 13  1  0  0  0  0
  5 14  1  0  0  0  0
  5 35  1  0  0  0  0
  6 10  1  0  0  0  0
  6 15  1  0  0  0  0
  6 36  1  0  0  0  0
  7  9  1  0  0  0  0
  7 16  1  0  0  0  0
  7 37  1  0  0  0  0
  8 17  1  0  0  0  0
  8 19  1  0  0  0  0
  8 39  1  0  0  0  0
  9 18  2  0  0  0  0
 10 11  1  0  0  0  0
 10 12  1  0  0  0  0
 10 26  1  0  0  0  0
 11 13  1  0  0  0  0
 11 27  1  0  0  0  0
 11 28  1  0  0  0  0
 12 14  1  0  0  0  0
 12 29  1  0  0  0  0
 12 30  1  0  0  0  0
 13 31  1  0  0  0  0
 13 32  1  0  0  0  0
 14 33  1  0  0  0  0
 14 34  1  0  0  0  0
 15 16  1  0  0  0  0
 16 17  2  0  0  0  0
 17 18  1  0  0  0  0
 18 38  1  0  0  0  0
 19 20  1  0  0  0  0
 20 21  2  0  0  0  0
 20 22  1  0  0  0  0
 21 23  1  0  0  0  0
 22 24  2  0  0  0  0
 23 25  2  0  0  0  0
 23 40  1  0  0  0  0
 24 25  1  0  0  0  0
 24 41  1  0  0  0  0
 25 42  1  0  0  0  0
M  END
> <PUBCHEM_COMPOUND_CID>
11338033

> <PUBCHEM_COMPOUND_CANONICALIZED>
1

> <PUBCHEM_CACTVS_COMPLEXITY>
479

> <PUBCHEM_CACTVS_HBOND_ACCEPTOR>
4

> <PUBCHEM_CACTVS_HBOND_DONOR>
4

> <PUBCHEM_CACTVS_ROTATABLE_BOND>
4

> <PUBCHEM_CACTVS_SUBSKEYS>
AAADceB7sAAGAAAAAAAAAAAAAAAAAWAAAAA8QAAAAAAAAAABwAAAHgIYAAAADCrBniQ8wJLjAACqAzV3UACSBAAnlwAYuaGodtgIYLrB19GUpYhgngDIzUcciACOAAAAAACBAAAAAAAAAQIAAAAAAAAAAA==

> <PUBCHEM_IUPAC_OPENEYE_NAME>
4-[(2,6-dichlorobenzoyl)amino]-N-(4-piperidyl)-1H-pyrazole-5-carboxamide

> <PUBCHEM_IUPAC_CAS_NAME>
4-[[(2,6-dichlorophenyl)-oxomethyl]amino]-N-(4-piperidinyl)-1H-pyrazole-5-carboxamide

> <PUBCHEM_IUPAC_NAME>
4-[(2,6-dichlorobenzoyl)amino]-N-piperidin-4-yl-1H-pyrazole-5-carboxamide

> <PUBCHEM_IUPAC_SYSTEMATIC_NAME>
4-[[2,6-bis(chloranyl)phenyl]carbonylamino]-N-piperidin-4-yl-1H-pyrazole-5-carboxamide

> <PUBCHEM_IUPAC_TRADITIONAL_NAME>
4-[(2,6-dichlorobenzoyl)amino]-N-(4-piperidyl)-1H-pyrazole-5-carboxamide

> <PUBCHEM_IUPAC_INCHI>
InChI=1S/C16H17Cl2N5O2/c17-10-2-1-3-11(18)13(10)15(24)22-12-8-20-23-14(12)16(25)21-9-4-6-19-7-5-9/h1-3,8-9,19H,4-7H2,(H,20,23)(H,21,25)(H,22,24)

> <PUBCHEM_IUPAC_INCHIKEY>
OVPNQJVDAFNBDN-UHFFFAOYSA-N

> <PUBCHEM_XLOGP3_AA>
2.6

> <PUBCHEM_EXACT_MASS>
381.076

> <PUBCHEM_MOLECULAR_FORMULA>
C16H17Cl2N5O2

> <PUBCHEM_MOLECULAR_WEIGHT>
382.245

> <PUBCHEM_OPENEYE_CAN_SMILES>
C1CNCCC1NC(=O)C2=C(C=NN2)NC(=O)C3=C(C=CC=C3Cl)Cl

> <PUBCHEM_OPENEYE_ISO_SMILES>
C1CNCCC1NC(=O)C2=C(C=NN2)NC(=O)C3=C(C=CC=C3Cl)Cl

> <PUBCHEM_CACTVS_TPSA>
98.9

> <PUBCHEM_MONOISOTOPIC_WEIGHT>
381.076

> <PUBCHEM_TOTAL_CHARGE>
0

> <PUBCHEM_HEAVY_ATOM_COUNT>
25

> <PUBCHEM_ATOM_DEF_STEREO_COUNT>
0

> <PUBCHEM_ATOM_UDEF_STEREO_COUNT>
0

> <PUBCHEM_BOND_DEF_STEREO_COUNT>
0

> <PUBCHEM_BOND_UDEF_STEREO_COUNT>
0

> <PUBCHEM_ISOTOPIC_ATOM_COUNT>
0

> <PUBCHEM_COMPONENT_COUNT>
1

> <PUBCHEM_CACTVS_TAUTO_COUNT>
17

> <PUBCHEM_COORDINATE_TYPE>
1
5
255

> <PUBCHEM_BONDANNOTATIONS>
16  17  8
17  18  8
20  21  8
20  22  8
21  23  8
22  24  8
23  25  8
24  25  8
7  16  8
7  9  8
9  18  8

$$$$
24905147
  -OEChem-11021605012D

 39 42  0     0  0  0  0  0  0999 V2000
    5.3208    4.0375    0.0000 O   0  0  0  0  0  0  0  0  0  0  0  0
    4.6783   -2.7568    0.0000 N   0  0  0  0  0  0  0  0  0  0  0  0
    5.2619   -1.9520    0.0000 N   0  0  0  0  0  0  0  0  0  0  0  0
    2.8660   -2.9520    0.0000 N   0  0  0  0  0  0  0  0  0  0  0  0
    5.9352    0.1079    0.0000 N   0  0  0  0  0  0  0  0  0  0  0  0
    2.0000   -1.4520    0.0000 N   0  0  0  0  0  0  0  0  0  0  0  0
    2.8660    0.0480    0.0000 N   0  0  0  0  0  0  0  0  0  0  0  0
    4.9889   -3.7073    0.0000 C   0  0  0  0  0  0  0  0  0  0  0  0
    4.6783   -1.1473    0.0000 C   0  0  0  0  0  0  0  0  0  0  0  0
    3.7320   -1.4520    0.0000 C   0  0  0  0  0  0  0  0  0  0  0  0
    3.7320   -2.4520    0.0000 C   0  0  0  0  0  0  0  0  0  0  0  0
    4.9889   -0.1968    0.0000 C   0  0  0  0  0  0  0  0  0  0  0  0
    5.9674   -3.9135    0.0000 C   0  0  0  0  0  0  0  0  0  0  0  0
    4.3211   -4.4516    0.0000 C   0  0  0  0  0  0  0  0  0  0  0  0
    2.8660   -0.9520    0.0000 C   0  0  0  0  0  0  0  0  0  0  0  0
    4.4053    0.6079    0.0000 C   0  0  0  0  0  0  0  0  0  0  0  0
    4.9889    1.4127    0.0000 C   0  0  0  0  0  0  0  0  0  0  0  0
    5.9394    1.1020    0.0000 C   0  0  0  0  0  0  0  0  0  0  0  0
    2.0000   -2.4520    0.0000 C   0  0  0  0  0  0  0  0  0  0  0  0
    4.7827    2.3912    0.0000 C   0  0  0  0  0  0  0  0  0  0  0  0
    6.6838    1.7699    0.0000 C   0  0  0  0  0  0  0  0  0  0  0  0
    5.5270    3.0590    0.0000 C   0  0  0  0  0  0  0  0  0  0  0  0
    6.4775    2.7484    0.0000 C   0  0  0  0  0  0  0  0  0  0  0  0
    5.1815   -4.2966    0.0000 H   0  0  0  0  0  0  0  0  0  0  0  0
    5.8819   -1.9520    0.0000 H   0  0  0  0  0  0  0  0  0  0  0  0
    3.8596   -4.0375    0.0000 H   0  0  0  0  0  0  0  0  0  0  0  0
    3.9070   -4.9131    0.0000 H   0  0  0  0  0  0  0  0  0  0  0  0
    5.8396   -4.5202    0.0000 H   0  0  0  0  0  0  0  0  0  0  0  0
    6.5741   -4.0414    0.0000 H   0  0  0  0  0  0  0  0  0  0  0  0
    6.0953   -3.3068    0.0000 H   0  0  0  0  0  0  0  0  0  0  0  0
    4.7826   -4.8657    0.0000 H   0  0  0  0  0  0  0  0  0  0  0  0
    3.7853    0.6079    0.0000 H   0  0  0  0  0  0  0  0  0  0  0  0
    1.4631   -2.7620    0.0000 H   0  0  0  0  0  0  0  0  0  0  0  0
    4.1934    2.5838    0.0000 H   0  0  0  0  0  0  0  0  0  0  0  0
    7.2731    1.5772    0.0000 H   0  0  0  0  0  0  0  0  0  0  0  0
    2.3291    0.3580    0.0000 H   0  0  0  0  0  0  0  0  0  0  0  0
    3.4030    0.3580    0.0000 H   0  0  0  0  0  0  0  0  0  0  0  0
    6.9390    3.1624    0.0000 H   0  0  0  0  0  0  0  0  0  0  0  0
    5.7823    4.4516    0.0000 H   0  0  0  0  0  0  0  0  0  0  0  0
  1 22  1  0  0  0  0
  1 39  1  0  0  0  0
  2  3  1  0  0  0  0
  2  8  1  0  0  0  0
  2 11  1  0  0  0  0
  3  9  1  0  0  0  0
  3 25  1  0  0  0  0
  4 11  2  0  0  0  0
  4 19  1  0  0  0  0
  5 12  1  0  0  0  0
  5 18  2  0  0  0  0
  6 15  1  0  0  0  0
  6 19  2  0  0  0  0
  7 15  1  0  0  0  0
  7 36  1  0  0  0  0
  7 37  1  0  0  0  0
  8 13  1  0  0  0  0
  8 14  1  0  0  0  0
  8 24  1  0  0  0  0
  9 10  1  0  0  0  0
  9 12  2  0  0  0  0
 10 11  1  0  0  0  0
 10 15  2  0  0  0  0
 12 16  1  0  0  0  0
 13 28  1  0  0  0  0
 13 29  1  0  0  0  0
 13 30  1  0  0  0  0
 14 26  1  0  0  0  0
 14 27  1  0  0  0  0
 14 31  1  0  0  0  0
 16 17  2  0  0  0  0
 16 32  1  0  0  0  0
 17 18  1  0  0  0  0
 17 20  1  0  0  0  0
 18 21  1  0  0  0  0
 19 33  1  0  0  0  0
 20 22  2  0  0  0  0
 20 34  1  0  0  0  0
 21 23  2  0  0  0  0
 21 35  1  0  0  0  0
 22 23  1  0  0  0  0
 23 38  1  0  0  0  0
M  END
> <PUBCHEM_COMPOUND_CID>
24905147

> <PUBCHEM_COMPOUND_CANONICALIZED>
1

> <PUBCHEM_CACTVS_COMPLEXITY>
687

> <PUBCHEM_CACTVS_HBOND_ACCEPTOR>
7

> <PUBCHEM_CACTVS_HBOND_DONOR>
3

> <PUBCHEM_CACTVS_ROTATABLE_BOND>
1

> <PUBCHEM_CACTVS_SUBSKEYS>
AAADceB7oAAAAAAAAAAAAAAAAAAAAWIAAAAsQAAAAAAAAFgBgAAAHgAYCAAADCzBmgQHsJZqEgCgAyZjZACChCkxIKAd+CA4RBiIDADASUAEFAgIgALIkCYAAAAAAAAAAAAAAAAAAAAAAAAAAAAAAAAAAA==

> <PUBCHEM_IUPAC_OPENEYE_NAME>
(2Z)-2-(4-amino-1-isopropyl-2H-pyrazolo[3,4-d]pyrimidin-3-ylidene)indol-5-ol

> <PUBCHEM_IUPAC_CAS_NAME>
(2Z)-2-(4-amino-1-propan-2-yl-2H-pyrazolo[3,4-d]pyrimidin-3-ylidene)-5-indolol

> <PUBCHEM_IUPAC_NAME>
(2Z)-2-(4-amino-1-propan-2-yl-2H-pyrazolo[3,4-d]pyrimidin-3-ylidene)indol-5-ol

> <PUBCHEM_IUPAC_SYSTEMATIC_NAME>
(2Z)-2-(4-azanyl-1-propan-2-yl-2H-pyrazolo[3,4-d]pyrimidin-3-ylidene)indol-5-ol

> <PUBCHEM_IUPAC_TRADITIONAL_NAME>
(2Z)-2-(4-amino-1-isopropyl-2H-pyrazolo[3,4-d]pyrimidin-3-ylidene)indol-5-ol

> <PUBCHEM_IUPAC_INCHI>
InChI=1S/C16H16N6O/c1-8(2)22-16-13(15(17)18-7-19-16)14(21-22)12-6-9-5-10(23)3-4-11(9)20-12/h3-8,21,23H,1-2H3,(H2,17,18,19)/b14-12-

> <PUBCHEM_IUPAC_INCHIKEY>
MTICIDWIKCANDD-OWBHPGMISA-N

> <PUBCHEM_XLOGP3_AA>
1.7

> <PUBCHEM_EXACT_MASS>
308.139

> <PUBCHEM_MOLECULAR_FORMULA>
C16H16N6O

> <PUBCHEM_MOLECULAR_WEIGHT>
308.345

> <PUBCHEM_OPENEYE_CAN_SMILES>
CC(C)N1C2=C(C(=C3C=C4C=C(C=CC4=N3)O)N1)C(=NC=N2)N

> <PUBCHEM_OPENEYE_ISO_SMILES>
CC(C)N1C2=C(/C(=C/3\C=C4C=C(C=CC4=N3)O)/N1)C(=NC=N2)N

> <PUBCHEM_CACTVS_TPSA>
99.7

> <PUBCHEM_MONOISOTOPIC_WEIGHT>
308.139

> <PUBCHEM_TOTAL_CHARGE>
0

> <PUBCHEM_HEAVY_ATOM_COUNT>
23

> <PUBCHEM_ATOM_DEF_STEREO_COUNT>
0

> <PUBCHEM_ATOM_UDEF_STEREO_COUNT>
0

> <PUBCHEM_BOND_DEF_STEREO_COUNT>
1

> <PUBCHEM_BOND_UDEF_STEREO_COUNT>
0

> <PUBCHEM_ISOTOPIC_ATOM_COUNT>
0

> <PUBCHEM_COMPONENT_COUNT>
1

> <PUBCHEM_CACTVS_TAUTO_COUNT>
67

> <PUBCHEM_COORDINATE_TYPE>
1
5
255

> <PUBCHEM_BONDANNOTATIONS>
10  11  8
10  15  8
17  18  8
17  20  8
18  21  8
20  22  8
21  23  8
22  23  8
4  11  8
4  19  8
6  15  8
6  19  8

$$$$
11314340
  -OEChem-11021605012D

 49 52  0     1  0  0  0  0  0999 V2000
    4.5981   -0.2500    0.0000 O   0  0  0  0  0  0  0  0  0  0  0  0
    4.5981    1.7500    0.0000 N   0  0  0  0  0  0  0  0  0  0  0  0
    9.5920   -3.7500    0.0000 N   0  0  0  0  0  0  0  0  0  0  0  0
    9.0084   -4.5547    0.0000 N   0  0  0  0  0  0  0  0  0  0  0  0
    3.7320   -2.7500    0.0000 N   0  0  0  0  0  0  0  0  0  0  0  0
    3.7320    1.2500    0.0000 C   0  0  1  0  0  0  0  0  0  0  0  0
    2.8660    1.7500    0.0000 C   0  0  0  0  0  0  0  0  0  0  0  0
    3.7320    0.2500    0.0000 C   0  0  0  0  0  0  0  0  0  0  0  0
    2.8660    2.7500    0.0000 C   0  0  0  0  0  0  0  0  0  0  0  0
    8.0622   -3.2500    0.0000 C   0  0  0  0  0  0  0  0  0  0  0  0
    6.3301   -3.2500    0.0000 C   0  0  0  0  0  0  0  0  0  0  0  0
    8.0622   -4.2500    0.0000 C   0  0  0  0  0  0  0  0  0  0  0  0
    7.1962   -2.7500    0.0000 C   0  0  0  0  0  0  0  0  0  0  0  0
    5.4641   -2.7500    0.0000 C   0  0  0  0  0  0  0  0  0  0  0  0
    9.0084   -2.9453    0.0000 C   0  0  0  0  0  0  0  0  0  0  0  0
    4.5981   -1.2500    0.0000 C   0  0  0  0  0  0  0  0  0  0  0  0
    6.3301   -4.2500    0.0000 C   0  0  0  0  0  0  0  0  0  0  0  0
    7.1962   -4.7500    0.0000 C   0  0  0  0  0  0  0  0  0  0  0  0
    5.4641   -1.7500    0.0000 C   0  0  0  0  0  0  0  0  0  0  0  0
    3.7320    3.2500    0.0000 C   0  0  0  0  0  0  0  0  0  0  0  0
    2.0000    3.2500    0.0000 C   0  0  0  0  0  0  0  0  0  0  0  0
    9.3191   -1.9948    0.0000 C   0  0  0  0  0  0  0  0  0  0  0  0
    4.5981   -3.2500    0.0000 C   0  0  0  0  0  0  0  0  0  0  0  0
    3.7320   -1.7500    0.0000 C   0  0  0  0  0  0  0  0  0  0  0  0
    3.7320    4.2500    0.0000 C   0  0  0  0  0  0  0  0  0  0  0  0
    2.0000    4.2500    0.0000 C   0  0  0  0  0  0  0  0  0  0  0  0
    2.8660    4.7500    0.0000 C   0  0  0  0  0  0  0  0  0  0  0  0
    3.7320    1.8700    0.0000 H   0  0  0  0  0  0  0  0  0  0  0  0
    2.2554    1.8577    0.0000 H   0  0  0  0  0  0  0  0  0  0  0  0
    2.6540    1.1674    0.0000 H   0  0  0  0  0  0  0  0  0  0  0  0
    3.1215    0.3577    0.0000 H   0  0  0  0  0  0  0  0  0  0  0  0
    3.5200   -0.3326    0.0000 H   0  0  0  0  0  0  0  0  0  0  0  0
    7.1962   -2.1300    0.0000 H   0  0  0  0  0  0  0  0  0  0  0  0
    5.1350    1.4400    0.0000 H   0  0  0  0  0  0  0  0  0  0  0  0
    4.5981    2.3700    0.0000 H   0  0  0  0  0  0  0  0  0  0  0  0
    5.7932   -4.5600    0.0000 H   0  0  0  0  0  0  0  0  0  0  0  0
    7.1962   -5.3700    0.0000 H   0  0  0  0  0  0  0  0  0  0  0  0
    6.0010   -1.4400    0.0000 H   0  0  0  0  0  0  0  0  0  0  0  0
    4.2690    2.9400    0.0000 H   0  0  0  0  0  0  0  0  0  0  0  0
    1.4631    2.9400    0.0000 H   0  0  0  0  0  0  0  0  0  0  0  0
   10.2120   -3.7500    0.0000 H   0  0  0  0  0  0  0  0  0  0  0  0
    9.9084   -2.1874    0.0000 H   0  0  0  0  0  0  0  0  0  0  0  0
    9.5117   -1.4054    0.0000 H   0  0  0  0  0  0  0  0  0  0  0  0
    8.7297   -1.8021    0.0000 H   0  0  0  0  0  0  0  0  0  0  0  0
    4.5981   -3.8700    0.0000 H   0  0  0  0  0  0  0  0  0  0  0  0
    3.1951   -1.4400    0.0000 H   0  0  0  0  0  0  0  0  0  0  0  0
    4.2690    4.5600    0.0000 H   0  0  0  0  0  0  0  0  0  0  0  0
    1.4631    4.5600    0.0000 H   0  0  0  0  0  0  0  0  0  0  0  0
    2.8660    5.3700    0.0000 H   0  0  0  0  0  0  0  0  0  0  0  0
  1  8  1  0  0  0  0
  1 16  1  0  0  0  0
  6  2  1  6  0  0  0
  2 34  1  0  0  0  0
  2 35  1  0  0  0  0
  3  4  1  0  0  0  0
  3 15  1  0  0  0  0
  3 41  1  0  0  0  0
  4 12  2  0  0  0  0
  5 23  2  0  0  0  0
  5 24  1  0  0  0  0
  6  7  1  0  0  0  0
  6  8  1  0  0  0  0
  6 28  1  0  0  0  0
  7  9  1  0  0  0  0
  7 29  1  0  0  0  0
  7 30  1  0  0  0  0
  8 31  1  0  0  0  0
  8 32  1  0  0  0  0
  9 20  2  0  0  0  0
  9 21  1  0  0  0  0
 10 12  1  0  0  0  0
 10 13  1  0  0  0  0
 10 15  2  0  0  0  0
 11 13  2  0  0  0  0
 11 14  1  0  0  0  0
 11 17  1  0  0  0  0
 12 18  1  0  0  0  0
 13 33  1  0  0  0  0
 14 19  2  0  0  0  0
 14 23  1  0  0  0  0
 15 22  1  0  0  0  0
 16 19  1  0  0  0  0
 16 24  2  0  0  0  0
 17 18  2  0  0  0  0
 17 36  1  0  0  0  0
 18 37  1  0  0  0  0
 19 38  1  0  0  0  0
 20 25  1  0  0  0  0
 20 39  1  0  0  0  0
 21 26  2  0  0  0  0
 21 40  1  0  0  0  0
 22 42  1  0  0  0  0
 22 43  1  0  0  0  0
 22 44  1  0  0  0  0
 23 45  1  0  0  0  0
 24 46  1  0  0  0  0
 25 27  2  0  0  0  0
 25 47  1  0  0  0  0
 26 27  1  0  0  0  0
 26 48  1  0  0  0  0
 27 49  1  0  0  0  0
M  END
> <PUBCHEM_COMPOUND_CID>
11314340

> <PUBCHEM_COMPOUND_CANONICALIZED>
1

> <PUBCHEM_CACTVS_COMPLEXITY>
456

> <PUBCHEM_CACTVS_HBOND_ACCEPTOR>
4

> <PUBCHEM_CACTVS_HBOND_DONOR>
2

> <PUBCHEM_CACTVS_ROTATABLE_BOND>
6

> <PUBCHEM_CACTVS_SUBSKEYS>
AAADceB7oAAAAAAAAAAAAAAAAAAAAWAAAAA8YIAAAAAAAFgB/AAAHgAYAAAADCzhngY+xvJrFACiAzRnRASSjCAxYiAY+aA/bJgOJuLE8duHvCjk2BHY6AewwOAOiAACAAACAAAQAAQAAAQAAAAAAAAAAA==

> <PUBCHEM_IUPAC_OPENEYE_NAME>
(2S)-1-[[5-(3-methyl-2H-indazol-5-yl)-3-pyridyl]oxy]-3-phenyl-propan-2-amine

> <PUBCHEM_IUPAC_CAS_NAME>
(2S)-1-[[5-(3-methyl-2H-indazol-5-yl)-3-pyridinyl]oxy]-3-phenyl-2-propanamine

> <PUBCHEM_IUPAC_NAME>
(2S)-1-[5-(3-methyl-2H-indazol-5-yl)pyridin-3-yl]oxy-3-phenylpropan-2-amine

> <PUBCHEM_IUPAC_SYSTEMATIC_NAME>
(2S)-1-[5-(3-methyl-2H-indazol-5-yl)pyridin-3-yl]oxy-3-phenyl-propan-2-amine

> <PUBCHEM_IUPAC_TRADITIONAL_NAME>
[(1S)-1-benzyl-2-[[5-(3-methyl-2H-indazol-5-yl)-3-pyridyl]oxy]ethyl]amine

> <PUBCHEM_IUPAC_INCHI>
InChI=1S/C22H22N4O/c1-15-21-11-17(7-8-22(21)26-25-15)18-10-20(13-24-12-18)27-14-19(23)9-16-5-3-2-4-6-16/h2-8,10-13,19H,9,14,23H2,1H3,(H,25,26)/t19-/m0/s1

> <PUBCHEM_IUPAC_INCHIKEY>
BPNUQXPIQBZCMR-IBGZPJMESA-N

> <PUBCHEM_XLOGP3_AA>
3.6

> <PUBCHEM_EXACT_MASS>
358.179

> <PUBCHEM_MOLECULAR_FORMULA>
C22H22N4O

> <PUBCHEM_MOLECULAR_WEIGHT>
358.445

> <PUBCHEM_OPENEYE_CAN_SMILES>
CC1=C2C=C(C=CC2=NN1)C3=CC(=CN=C3)OCC(CC4=CC=CC=C4)N

> <PUBCHEM_OPENEYE_ISO_SMILES>
CC1=C2C=C(C=CC2=NN1)C3=CC(=CN=C3)OC[C@H](CC4=CC=CC=C4)N

> <PUBCHEM_CACTVS_TPSA>
76.8

> <PUBCHEM_MONOISOTOPIC_WEIGHT>
358.179

> <PUBCHEM_TOTAL_CHARGE>
0

> <PUBCHEM_HEAVY_ATOM_COUNT>
27

> <PUBCHEM_ATOM_DEF_STEREO_COUNT>
1

> <PUBCHEM_ATOM_UDEF_STEREO_COUNT>
0

> <PUBCHEM_BOND_DEF_STEREO_COUNT>
0

> <PUBCHEM_BOND_UDEF_STEREO_COUNT>
0

> <PUBCHEM_ISOTOPIC_ATOM_COUNT>
0

> <PUBCHEM_COMPONENT_COUNT>
1

> <PUBCHEM_CACTVS_TAUTO_COUNT>
2

> <PUBCHEM_COORDINATE_TYPE>
1
5
255

> <PUBCHEM_BONDANNOTATIONS>
10  12  8
10  13  8
10  15  8
11  13  8
11  17  8
12  18  8
14  19  8
14  23  8
16  19  8
16  24  8
17  18  8
6  2  6
20  25  8
21  26  8
25  27  8
26  27  8
3  15  8
3  4  8
4  12  8
5  23  8
5  24  8
9  20  8
9  21  8

$$$$
25182616
  -OEChem-11021605012D

 68 72  0     0  0  0  0  0  0999 V2000
    6.8957    4.8716    0.0000 F   0  0  0  0  0  0  0  0  0  0  0  0
    8.6278   -2.1284    0.0000 O   0  0  0  0  0  0  0  0  0  0  0  0
    4.0035   -3.1387    0.0000 O   0  0  0  0  0  0  0  0  0  0  0  0
    9.4938    3.3716    0.0000 O   0  0  0  0  0  0  0  0  0  0  0  0
    5.2927   -4.2955    0.0000 N   0  0  0  0  0  0  0  0  0  0  0  0
    6.8957   -1.1284    0.0000 N   0  0  0  0  0  0  0  0  0  0  0  0
    2.6678   -4.6273    0.0000 N   0  0  0  0  0  0  0  0  0  0  0  0
    7.7618    0.3716    0.0000 N   0  0  0  0  0  0  0  0  0  0  0  0
    8.6278   -1.1284    0.0000 N   0  0  0  0  0  0  0  0  0  0  0  0
   10.4400   -0.9331    0.0000 N   0  0  0  0  0  0  0  0  0  0  0  0
    8.6278    1.8716    0.0000 N   0  0  0  0  0  0  0  0  0  0  0  0
    8.6278    4.8716    0.0000 N   0  0  0  0  0  0  0  0  0  0  0  0
    6.6865   -5.1002    0.0000 C   0  0  0  0  0  0  0  0  0  0  0  0
    5.6978   -5.2032    0.0000 C   0  0  0  0  0  0  0  0  0  0  0  0
    6.8957   -4.1284    0.0000 C   0  0  0  0  0  0  0  0  0  0  0  0
    6.0297   -3.6284    0.0000 C   0  0  0  0  0  0  0  0  0  0  0  0
    6.0297   -2.6284    0.0000 C   0  0  0  0  0  0  0  0  0  0  0  0
    7.7618   -3.6284    0.0000 C   0  0  0  0  0  0  0  0  0  0  0  0
    4.3142   -4.0892    0.0000 C   0  0  0  0  0  0  0  0  0  0  0  0
    6.8957   -2.1284    0.0000 C   0  0  0  0  0  0  0  0  0  0  0  0
    7.7618   -2.6284    0.0000 C   0  0  0  0  0  0  0  0  0  0  0  0
    3.6464   -4.8335    0.0000 C   0  0  0  0  0  0  0  0  0  0  0  0
    7.7618   -0.6284    0.0000 C   0  0  0  0  0  0  0  0  0  0  0  0
    2.0000   -5.3716    0.0000 C   0  0  0  0  0  0  0  0  0  0  0  0
    2.3572   -3.6768    0.0000 C   0  0  0  0  0  0  0  0  0  0  0  0
    9.4938    0.3716    0.0000 C   0  0  0  0  0  0  0  0  0  0  0  0
    9.4938   -0.6284    0.0000 C   0  0  0  0  0  0  0  0  0  0  0  0
    8.6278    0.8716    0.0000 C   0  0  0  0  0  0  0  0  0  0  0  0
    9.4938   -2.6284    0.0000 C   0  0  0  0  0  0  0  0  0  0  0  0
   10.4400    0.6764    0.0000 C   0  0  0  0  0  0  0  0  0  0  0  0
   11.0236   -0.1284    0.0000 C   0  0  0  0  0  0  0  0  0  0  0  0
    7.7618    2.3716    0.0000 C   0  0  0  0  0  0  0  0  0  0  0  0
    7.7618    3.3716    0.0000 C   0  0  0  0  0  0  0  0  0  0  0  0
    6.8957    1.8716    0.0000 C   0  0  0  0  0  0  0  0  0  0  0  0
    6.8957    3.8716    0.0000 C   0  0  0  0  0  0  0  0  0  0  0  0
    6.0297    2.3716    0.0000 C   0  0  0  0  0  0  0  0  0  0  0  0
    8.6278    3.8716    0.0000 C   0  0  0  0  0  0  0  0  0  0  0  0
    6.0297    3.3716    0.0000 C   0  0  0  0  0  0  0  0  0  0  0  0
    7.7618    5.3716    0.0000 C   0  0  0  0  0  0  0  0  0  0  0  0
    6.6856   -5.7202    0.0000 H   0  0  0  0  0  0  0  0  0  0  0  0
    7.3030   -5.1662    0.0000 H   0  0  0  0  0  0  0  0  0  0  0  0
    5.1082   -5.3950    0.0000 H   0  0  0  0  0  0  0  0  0  0  0  0
    5.8265   -5.8097    0.0000 H   0  0  0  0  0  0  0  0  0  0  0  0
    5.4928   -2.3184    0.0000 H   0  0  0  0  0  0  0  0  0  0  0  0
    8.2987   -3.9384    0.0000 H   0  0  0  0  0  0  0  0  0  0  0  0
    3.4151   -5.4088    0.0000 H   0  0  0  0  0  0  0  0  0  0  0  0
    4.1727   -5.1612    0.0000 H   0  0  0  0  0  0  0  0  0  0  0  0
    6.3588   -0.8184    0.0000 H   0  0  0  0  0  0  0  0  0  0  0  0
    1.5385   -4.9576    0.0000 H   0  0  0  0  0  0  0  0  0  0  0  0
    1.5859   -5.8331    0.0000 H   0  0  0  0  0  0  0  0  0  0  0  0
    2.4615   -5.7857    0.0000 H   0  0  0  0  0  0  0  0  0  0  0  0
    2.9465   -3.4842    0.0000 H   0  0  0  0  0  0  0  0  0  0  0  0
    2.1646   -3.0875    0.0000 H   0  0  0  0  0  0  0  0  0  0  0  0
    1.7679   -3.8694    0.0000 H   0  0  0  0  0  0  0  0  0  0  0  0
    9.1838   -3.1653    0.0000 H   0  0  0  0  0  0  0  0  0  0  0  0
   10.0308   -2.9384    0.0000 H   0  0  0  0  0  0  0  0  0  0  0  0
    9.8038   -2.0914    0.0000 H   0  0  0  0  0  0  0  0  0  0  0  0
   10.6326    1.2657    0.0000 H   0  0  0  0  0  0  0  0  0  0  0  0
   10.6326   -1.5224    0.0000 H   0  0  0  0  0  0  0  0  0  0  0  0
    9.1647    2.1816    0.0000 H   0  0  0  0  0  0  0  0  0  0  0  0
   11.6436   -0.1284    0.0000 H   0  0  0  0  0  0  0  0  0  0  0  0
    6.8957    1.2516    0.0000 H   0  0  0  0  0  0  0  0  0  0  0  0
    5.4928    2.0616    0.0000 H   0  0  0  0  0  0  0  0  0  0  0  0
    5.4928    3.6816    0.0000 H   0  0  0  0  0  0  0  0  0  0  0  0
    9.1647    5.1816    0.0000 H   0  0  0  0  0  0  0  0  0  0  0  0
    8.0718    5.9086    0.0000 H   0  0  0  0  0  0  0  0  0  0  0  0
    7.2248    5.6816    0.0000 H   0  0  0  0  0  0  0  0  0  0  0  0
    7.4518    4.8347    0.0000 H   0  0  0  0  0  0  0  0  0  0  0  0
  1 35  1  0  0  0  0
  2 21  1  0  0  0  0
  2 29  1  0  0  0  0
  3 19  2  0  0  0  0
  4 37  2  0  0  0  0
  5 14  1  0  0  0  0
  5 16  1  0  0  0  0
  5 19  1  0  0  0  0
  6 20  1  0  0  0  0
  6 23  1  0  0  0  0
  6 48  1  0  0  0  0
  7 22  1  0  0  0  0
  7 24  1  0  0  0  0
  7 25  1  0  0  0  0
  8 23  1  0  0  0  0
  8 28  2  0  0  0  0
  9 23  2  0  0  0  0
  9 27  1  0  0  0  0
 10 27  1  0  0  0  0
 10 31  1  0  0  0  0
 10 59  1  0  0  0  0
 11 28  1  0  0  0  0
 11 32  1  0  0  0  0
 11 60  1  0  0  0  0
 12 37  1  0  0  0  0
 12 39  1  0  0  0  0
 12 65  1  0  0  0  0
 13 14  1  0  0  0  0
 13 15  1  0  0  0  0
 13 40  1  0  0  0  0
 13 41  1  0  0  0  0
 14 42  1  0  0  0  0
 14 43  1  0  0  0  0
 15 16  1  0  0  0  0
 15 18  2  0  0  0  0
 16 17  2  0  0  0  0
 17 20  1  0  0  0  0
 17 44  1  0  0  0  0
 18 21  1  0  0  0  0
 18 45  1  0  0  0  0
 19 22  1  0  0  0  0
 20 21  2  0  0  0  0
 22 46  1  0  0  0  0
 22 47  1  0  0  0  0
 24 49  1  0  0  0  0
 24 50  1  0  0  0  0
 24 51  1  0  0  0  0
 25 52  1  0  0  0  0
 25 53  1  0  0  0  0
 25 54  1  0  0  0  0
 26 27  2  0  0  0  0
 26 28  1  0  0  0  0
 26 30  1  0  0  0  0
 29 55  1  0  0  0  0
 29 56  1  0  0  0  0
 29 57  1  0  0  0  0
 30 31  2  0  0  0  0
 30 58  1  0  0  0  0
 31 61  1  0  0  0  0
 32 33  2  0  0  0  0
 32 34  1  0  0  0  0
 33 35  1  0  0  0  0
 33 37  1  0  0  0  0
 34 36  2  0  0  0  0
 34 62  1  0  0  0  0
 35 38  2  0  0  0  0
 36 38  1  0  0  0  0
 36 63  1  0  0  0  0
 38 64  1  0  0  0  0
 39 66  1  0  0  0  0
 39 67  1  0  0  0  0
 39 68  1  0  0  0  0
M  END
> <PUBCHEM_COMPOUND_CID>
25182616

> <PUBCHEM_COMPOUND_CANONICALIZED>
1

> <PUBCHEM_CACTVS_COMPLEXITY>
867

> <PUBCHEM_CACTVS_HBOND_ACCEPTOR>
9

> <PUBCHEM_CACTVS_HBOND_DONOR>
4

> <PUBCHEM_CACTVS_ROTATABLE_BOND>
8

> <PUBCHEM_CACTVS_SUBSKEYS>
AAADceB78QAAAAAAAAAAAAAAAAAAAWLAAAA8YIAAAAAAAFgB/AAAHwAQAAAADAzBmw4/9t/JlACoAjd3dACCiCm1IqAJ2aG/bNiObvrE/fuVNahs1hPY6We42LKOCEABAAQCEAAQgAIACAQgAAAAAAAAAA==

> <PUBCHEM_IUPAC_OPENEYE_NAME>
2-[[2-[[1-[2-(dimethylamino)acetyl]-5-methoxy-indolin-6-yl]amino]-7H-pyrrolo[2,3-d]pyrimidin-4-yl]amino]-6-fluoro-N-methyl-benzamide

> <PUBCHEM_IUPAC_CAS_NAME>
2-[[2-[[1-[2-(dimethylamino)-1-oxoethyl]-5-methoxy-2,3-dihydroindol-6-yl]amino]-7H-pyrrolo[2,3-d]pyrimidin-4-yl]amino]-6-fluoro-N-methylbenzamide

> <PUBCHEM_IUPAC_NAME>
2-[[2-[[1-[2-(dimethylamino)acetyl]-5-methoxy-2,3-dihydroindol-6-yl]amino]-7H-pyrrolo[2,3-d]pyrimidin-4-yl]amino]-6-fluoro-N-methylbenzamide

> <PUBCHEM_IUPAC_SYSTEMATIC_NAME>
2-[[2-[[1-[2-(dimethylamino)ethanoyl]-5-methoxy-2,3-dihydroindol-6-yl]amino]-7H-pyrrolo[2,3-d]pyrimidin-4-yl]amino]-6-fluoranyl-N-methyl-benzamide

> <PUBCHEM_IUPAC_TRADITIONAL_NAME>
2-[[2-[[1-[2-(dimethylamino)acetyl]-5-methoxy-indolin-6-yl]amino]-7H-pyrrolo[2,3-d]pyrimidin-4-yl]amino]-6-fluoro-N-methyl-benzamide

> <PUBCHEM_IUPAC_INCHI>
InChI=1S/C27H29FN8O3/c1-29-26(38)23-17(28)6-5-7-18(23)31-25-16-8-10-30-24(16)33-27(34-25)32-19-13-20-15(12-21(19)39-4)9-11-36(20)22(37)14-35(2)3/h5-8,10,12-13H,9,11,14H2,1-4H3,(H,29,38)(H3,30,31,32,33,34)

> <PUBCHEM_IUPAC_INCHIKEY>
HZTYDQRUAWIZRE-UHFFFAOYSA-N

> <PUBCHEM_XLOGP3_AA>
3.8

> <PUBCHEM_EXACT_MASS>
532.235

> <PUBCHEM_MOLECULAR_FORMULA>
C27H29FN8O3

> <PUBCHEM_MOLECULAR_WEIGHT>
532.58

> <PUBCHEM_OPENEYE_CAN_SMILES>
CNC(=O)C1=C(C=CC=C1F)NC2=NC(=NC3=C2C=CN3)NC4=C(C=C5CCN(C5=C4)C(=O)CN(C)C)OC

> <PUBCHEM_OPENEYE_ISO_SMILES>
CNC(=O)C1=C(C=CC=C1F)NC2=NC(=NC3=C2C=CN3)NC4=C(C=C5CCN(C5=C4)C(=O)CN(C)C)OC

> <PUBCHEM_CACTVS_TPSA>
128

> <PUBCHEM_MONOISOTOPIC_WEIGHT>
532.235

> <PUBCHEM_TOTAL_CHARGE>
0

> <PUBCHEM_HEAVY_ATOM_COUNT>
39

> <PUBCHEM_ATOM_DEF_STEREO_COUNT>
0

> <PUBCHEM_ATOM_UDEF_STEREO_COUNT>
0

> <PUBCHEM_BOND_DEF_STEREO_COUNT>
0

> <PUBCHEM_BOND_UDEF_STEREO_COUNT>
0

> <PUBCHEM_ISOTOPIC_ATOM_COUNT>
0

> <PUBCHEM_COMPONENT_COUNT>
1

> <PUBCHEM_CACTVS_TAUTO_COUNT>
79

> <PUBCHEM_COORDINATE_TYPE>
1
5
255

> <PUBCHEM_BONDANNOTATIONS>
10  27  8
10  31  8
15  16  8
15  18  8
16  17  8
17  20  8
18  21  8
20  21  8
26  27  8
26  28  8
26  30  8
30  31  8
32  33  8
32  34  8
33  35  8
34  36  8
35  38  8
36  38  8
8  23  8
8  28  8
9  23  8
9  27  8

$$$$
44551653
  -OEChem-11021605012D

 68 70  0     0  0  0  0  0  0999 V2000
    6.3175    0.0000    0.0000 Cl  0  0  0  0  0  0  0  0  0  0  0  0
   12.2320    6.1200    0.0000 O   0  0  0  0  0  0  0  0  0  0  0  0
    4.4378    7.6200    0.0000 O   0  0  0  0  0  0  0  0  0  0  0  0
   10.4999    6.1200    0.0000 N   0  0  0  0  0  0  0  0  0  0  0  0
   12.2320    4.1200    0.0000 N   0  0  0  0  0  0  0  0  0  0  0  0
    5.3038    9.1200    0.0000 N   0  0  0  0  0  0  0  0  0  0  0  0
    2.6582    8.7133    0.0000 N   0  0  0  0  0  0  0  0  0  0  0  0
    3.4672   10.1145    0.0000 N   0  0  0  0  0  0  0  0  0  0  0  0
    0.0000    9.2474    0.0000 N   0  0  0  0  0  0  0  0  0  0  0  0
    8.7679    7.1200    0.0000 C   0  0  0  0  0  0  0  0  0  0  0  0
    8.7679    6.1200    0.0000 C   0  0  0  0  0  0  0  0  0  0  0  0
    9.6339    7.6200    0.0000 C   0  0  0  0  0  0  0  0  0  0  0  0
   10.4999    7.1200    0.0000 C   0  0  0  0  0  0  0  0  0  0  0  0
    9.6339    5.6200    0.0000 C   0  0  0  0  0  0  0  0  0  0  0  0
    7.9018    7.6200    0.0000 C   0  0  0  0  0  0  0  0  0  0  0  0
    7.9018    8.6200    0.0000 C   0  0  0  0  0  0  0  0  0  0  0  0
    7.0358    9.1200    0.0000 C   0  0  0  0  0  0  0  0  0  0  0  0
   11.3659    5.6200    0.0000 C   0  0  0  0  0  0  0  0  0  0  0  0
    7.0358    7.1200    0.0000 C   0  0  0  0  0  0  0  0  0  0  0  0
    7.0358   10.1200    0.0000 C   0  0  0  0  0  0  0  0  0  0  0  0
    7.9018   10.6200    0.0000 C   0  0  0  0  0  0  0  0  0  0  0  0
    6.1698    8.6200    0.0000 C   0  0  0  0  0  0  0  0  0  0  0  0
    7.9018   11.6200    0.0000 C   0  0  0  0  0  0  0  0  0  0  0  0
    7.0358   12.1200    0.0000 C   0  0  0  0  0  0  0  0  0  0  0  0
    6.1698    7.6200    0.0000 C   0  0  0  0  0  0  0  0  0  0  0  0
    6.1698   11.6200    0.0000 C   0  0  0  0  0  0  0  0  0  0  0  0
   11.3659    4.6200    0.0000 C   0  0  0  0  0  0  0  0  0  0  0  0
    6.1698   10.6200    0.0000 C   0  0  0  0  0  0  0  0  0  0  0  0
   12.2320    3.1200    0.0000 C   0  0  0  0  0  0  0  0  0  0  0  0
   13.0980    4.6200    0.0000 C   0  0  0  0  0  0  0  0  0  0  0  0
    4.4378    8.6200    0.0000 C   0  0  0  0  0  0  0  0  0  0  0  0
    3.5717    9.1200    0.0000 C   0  0  0  0  0  0  0  0  0  0  0  0
    1.9890    9.4564    0.0000 C   0  0  0  0  0  0  0  0  0  0  0  0
    2.4890   10.3224    0.0000 C   0  0  0  0  0  0  0  0  0  0  0  0
    0.9945    9.3519    0.0000 C   0  0  0  0  0  0  0  0  0  0  0  0
    8.2309    6.8100    0.0000 H   0  0  0  0  0  0  0  0  0  0  0  0
    8.1573    6.2277    0.0000 H   0  0  0  0  0  0  0  0  0  0  0  0
    8.5558    5.5374    0.0000 H   0  0  0  0  0  0  0  0  0  0  0  0
   10.0324    8.0950    0.0000 H   0  0  0  0  0  0  0  0  0  0  0  0
    9.2354    8.0950    0.0000 H   0  0  0  0  0  0  0  0  0  0  0  0
    9.2354    5.1450    0.0000 H   0  0  0  0  0  0  0  0  0  0  0  0
   10.0324    5.1450    0.0000 H   0  0  0  0  0  0  0  0  0  0  0  0
   11.1105    7.0123    0.0000 H   0  0  0  0  0  0  0  0  0  0  0  0
   10.7120    7.7026    0.0000 H   0  0  0  0  0  0  0  0  0  0  0  0
    8.4388    8.9300    0.0000 H   0  0  0  0  0  0  0  0  0  0  0  0
    7.0358    6.5000    0.0000 H   0  0  0  0  0  0  0  0  0  0  0  0
    8.1139   10.0374    0.0000 H   0  0  0  0  0  0  0  0  0  0  0  0
    8.5124   10.7277    0.0000 H   0  0  0  0  0  0  0  0  0  0  0  0
    8.5124   11.5123    0.0000 H   0  0  0  0  0  0  0  0  0  0  0  0
    8.1139   12.2026    0.0000 H   0  0  0  0  0  0  0  0  0  0  0  0
    7.4344   12.5949    0.0000 H   0  0  0  0  0  0  0  0  0  0  0  0
    6.6373   12.5949    0.0000 H   0  0  0  0  0  0  0  0  0  0  0  0
    5.6329    7.3100    0.0000 H   0  0  0  0  0  0  0  0  0  0  0  0
    5.9577   12.2026    0.0000 H   0  0  0  0  0  0  0  0  0  0  0  0
    5.5592   11.5123    0.0000 H   0  0  0  0  0  0  0  0  0  0  0  0
   10.7554    4.7277    0.0000 H   0  0  0  0  0  0  0  0  0  0  0  0
   11.1539    4.0374    0.0000 H   0  0  0  0  0  0  0  0  0  0  0  0
    5.6329   10.3100    0.0000 H   0  0  0  0  0  0  0  0  0  0  0  0
    5.3038    9.7400    0.0000 H   0  0  0  0  0  0  0  0  0  0  0  0
   11.6120    3.1200    0.0000 H   0  0  0  0  0  0  0  0  0  0  0  0
   12.2320    2.5000    0.0000 H   0  0  0  0  0  0  0  0  0  0  0  0
   12.8520    3.1200    0.0000 H   0  0  0  0  0  0  0  0  0  0  0  0
   13.4080    4.0831    0.0000 H   0  0  0  0  0  0  0  0  0  0  0  0
   13.6349    4.9300    0.0000 H   0  0  0  0  0  0  0  0  0  0  0  0
   12.7880    5.1569    0.0000 H   0  0  0  0  0  0  0  0  0  0  0  0
    2.5293    8.1068    0.0000 H   0  0  0  0  0  0  0  0  0  0  0  0
    2.2369   10.8888    0.0000 H   0  0  0  0  0  0  0  0  0  0  0  0
    7.3175    0.0000    0.0000 H   0  0  0  0  0  0  0  0  0  0  0  0
  1 68  1  0  0  0  0
  2 18  2  0  0  0  0
  3 31  2  0  0  0  0
  4 13  1  0  0  0  0
  4 14  1  0  0  0  0
  4 18  1  0  0  0  0
  5 27  1  0  0  0  0
  5 29  1  0  0  0  0
  5 30  1  0  0  0  0
  6 22  1  0  0  0  0
  6 31  1  0  0  0  0
  6 59  1  0  0  0  0
  7 32  1  0  0  0  0
  7 33  1  0  0  0  0
  7 66  1  0  0  0  0
  8 32  2  0  0  0  0
  8 34  1  0  0  0  0
  9 35  3  0  0  0  0
 10 11  1  0  0  0  0
 10 12  1  0  0  0  0
 10 15  1  0  0  0  0
 10 36  1  0  0  0  0
 11 14  1  0  0  0  0
 11 37  1  0  0  0  0
 11 38  1  0  0  0  0
 12 13  1  0  0  0  0
 12 39  1  0  0  0  0
 12 40  1  0  0  0  0
 13 43  1  0  0  0  0
 13 44  1  0  0  0  0
 14 41  1  0  0  0  0
 14 42  1  0  0  0  0
 15 16  2  0  0  0  0
 15 19  1  0  0  0  0
 16 17  1  0  0  0  0
 16 45  1  0  0  0  0
 17 20  1  0  0  0  0
 17 22  2  0  0  0  0
 18 27  1  0  0  0  0
 19 25  2  0  0  0  0
 19 46  1  0  0  0  0
 20 21  1  0  0  0  0
 20 28  2  0  0  0  0
 21 23  1  0  0  0  0
 21 47  1  0  0  0  0
 21 48  1  0  0  0  0
 22 25  1  0  0  0  0
 23 24  1  0  0  0  0
 23 49  1  0  0  0  0
 23 50  1  0  0  0  0
 24 26  1  0  0  0  0
 24 51  1  0  0  0  0
 24 52  1  0  0  0  0
 25 53  1  0  0  0  0
 26 28  1  0  0  0  0
 26 54  1  0  0  0  0
 26 55  1  0  0  0  0
 27 56  1  0  0  0  0
 27 57  1  0  0  0  0
 28 58  1  0  0  0  0
 29 60  1  0  0  0  0
 29 61  1  0  0  0  0
 29 62  1  0  0  0  0
 30 63  1  0  0  0  0
 30 64  1  0  0  0  0
 30 65  1  0  0  0  0
 31 32  1  0  0  0  0
 33 34  2  0  0  0  0
 33 35  1  0  0  0  0
 34 67  1  0  0  0  0
M  END
> <PUBCHEM_COMPOUND_CID>
44551653

> <PUBCHEM_COMPOUND_CANONICALIZED>
1

> <PUBCHEM_CACTVS_COMPLEXITY>
809

> <PUBCHEM_CACTVS_HBOND_ACCEPTOR>
5

> <PUBCHEM_CACTVS_HBOND_DONOR>
3

> <PUBCHEM_CACTVS_ROTATABLE_BOND>
6

> <PUBCHEM_CACTVS_SUBSKEYS>
AAADcfB7sAAEAAAAAAAAAAAAAAAAAWAAAAA8QIAAAAAAAAABwAAAHgAQAAAADQjBnwQ/0JfJkAC4Bzd3dACigC2zEqAJ2QC4dIiI6CLAmbGUIAholgLIyCcQgMAOiAACAAACAAAQAAQAAAQAAAAAAAAAAA==

> <PUBCHEM_IUPAC_OPENEYE_NAME>
5-cyano-N-[2-(cyclohexen-1-yl)-4-[1-[2-(dimethylamino)acetyl]-4-piperidyl]phenyl]-1H-imidazole-2-carboxamide;hydrochloride

> <PUBCHEM_IUPAC_CAS_NAME>
5-cyano-N-[2-(1-cyclohexenyl)-4-[1-[2-(dimethylamino)-1-oxoethyl]-4-piperidinyl]phenyl]-1H-imidazole-2-carboxamide;hydrochloride

> <PUBCHEM_IUPAC_NAME>
5-cyano-N-[2-(cyclohexen-1-yl)-4-[1-[2-(dimethylamino)acetyl]piperidin-4-yl]phenyl]-1H-imidazole-2-carboxamide;hydrochloride

> <PUBCHEM_IUPAC_SYSTEMATIC_NAME>
5-cyano-N-[2-(cyclohexen-1-yl)-4-[1-[2-(dimethylamino)ethanoyl]piperidin-4-yl]phenyl]-1H-imidazole-2-carboxamide;hydrochloride

> <PUBCHEM_IUPAC_TRADITIONAL_NAME>
5-cyano-N-[2-(cyclohexen-1-yl)-4-[1-[2-(dimethylamino)acetyl]-4-piperidyl]phenyl]-1H-imidazole-2-carboxamide;hydrochloride

> <PUBCHEM_IUPAC_INCHI>
InChI=1S/C26H32N6O2.ClH/c1-31(2)17-24(33)32-12-10-18(11-13-32)20-8-9-23(22(14-20)19-6-4-3-5-7-19)30-26(34)25-28-16-21(15-27)29-25;/h6,8-9,14,16,18H,3-5,7,10-13,17H2,1-2H3,(H,28,29)(H,30,34);1H

> <PUBCHEM_IUPAC_INCHIKEY>
MVPKLZHNOLVZAU-UHFFFAOYSA-N

> <PUBCHEM_EXACT_MASS>
496.235

> <PUBCHEM_MOLECULAR_FORMULA>
C26H33ClN6O2

> <PUBCHEM_MOLECULAR_WEIGHT>
497.04

> <PUBCHEM_OPENEYE_CAN_SMILES>
CN(C)CC(=O)N1CCC(CC1)C2=CC(=C(C=C2)NC(=O)C3=NC=C(N3)C#N)C4=CCCCC4.Cl

> <PUBCHEM_OPENEYE_ISO_SMILES>
CN(C)CC(=O)N1CCC(CC1)C2=CC(=C(C=C2)NC(=O)C3=NC=C(N3)C#N)C4=CCCCC4.Cl

> <PUBCHEM_CACTVS_TPSA>
105

> <PUBCHEM_MONOISOTOPIC_WEIGHT>
496.235

> <PUBCHEM_TOTAL_CHARGE>
0

> <PUBCHEM_HEAVY_ATOM_COUNT>
35

> <PUBCHEM_ATOM_DEF_STEREO_COUNT>
0

> <PUBCHEM_ATOM_UDEF_STEREO_COUNT>
0

> <PUBCHEM_BOND_DEF_STEREO_COUNT>
0

> <PUBCHEM_BOND_UDEF_STEREO_COUNT>
0

> <PUBCHEM_ISOTOPIC_ATOM_COUNT>
0

> <PUBCHEM_COMPONENT_COUNT>
2

> <PUBCHEM_CACTVS_TAUTO_COUNT>
11

> <PUBCHEM_COORDINATE_TYPE>
1
5
255

> <PUBCHEM_BONDANNOTATIONS>
15  16  8
15  19  8
16  17  8
17  22  8
19  25  8
22  25  8
33  34  8
7  32  8
7  33  8
8  32  8
8  34  8

$$$$
9933475
  -OEChem-11021605012D

 60 64  0     0  0  0  0  0  0999 V2000
    8.7720   -3.6282    0.0000 F   0  0  0  0  0  0  0  0  0  0  0  0
    5.3147    1.4062    0.0000 O   0  0  0  0  0  0  0  0  0  0  0  0
    8.7952   -1.6284    0.0000 O   0  0  0  0  0  0  0  0  0  0  0  0
    5.3147   -0.5938    0.0000 O   0  0  0  0  0  0  0  0  0  0  0  0
    3.5827    4.4062    0.0000 N   0  0  0  0  0  0  0  0  0  0  0  0
   12.1050   -3.8339    0.0000 N   0  0  0  0  0  0  0  0  0  0  0  0
    8.8067    1.4409    0.0000 N   0  0  0  0  0  0  0  0  0  0  0  0
    9.7128   -0.1146    0.0000 N   0  0  0  0  0  0  0  0  0  0  0  0
    3.4782    5.4008    0.0000 C   0  0  0  0  0  0  0  0  0  0  0  0
    2.6691    3.9995    0.0000 C   0  0  0  0  0  0  0  0  0  0  0  0
    2.5000    5.6087    0.0000 C   0  0  0  0  0  0  0  0  0  0  0  0
    2.0000    4.7426    0.0000 C   0  0  0  0  0  0  0  0  0  0  0  0
    4.4487    3.9062    0.0000 C   0  0  0  0  0  0  0  0  0  0  0  0
    4.4487    2.9062    0.0000 C   0  0  0  0  0  0  0  0  0  0  0  0
    5.3147    2.4062    0.0000 C   0  0  0  0  0  0  0  0  0  0  0  0
    6.1808    0.9062    0.0000 C   0  0  0  0  0  0  0  0  0  0  0  0
    6.1808   -0.0938    0.0000 C   0  0  0  0  0  0  0  0  0  0  0  0
    7.0468    1.4062    0.0000 C   0  0  0  0  0  0  0  0  0  0  0  0
    7.9128   -0.0938    0.0000 C   0  0  0  0  0  0  0  0  0  0  0  0
    7.9128    0.9062    0.0000 C   0  0  0  0  0  0  0  0  0  0  0  0
   10.5040   -3.6483    0.0000 C   0  0  0  0  0  0  0  0  0  0  0  0
   11.3757   -3.1583    0.0000 C   0  0  0  0  0  0  0  0  0  0  0  0
    7.0468   -0.5938    0.0000 C   0  0  0  0  0  0  0  0  0  0  0  0
   11.6894   -4.7369    0.0000 C   0  0  0  0  0  0  0  0  0  0  0  0
   10.7019   -4.6224    0.0000 C   0  0  0  0  0  0  0  0  0  0  0  0
    8.8067   -0.6284    0.0000 C   0  0  0  0  0  0  0  0  0  0  0  0
    9.6438   -3.1383    0.0000 C   0  0  0  0  0  0  0  0  0  0  0  0
    9.6554   -2.1384    0.0000 C   0  0  0  0  0  0  0  0  0  0  0  0
   11.3873   -2.1584    0.0000 C   0  0  0  0  0  0  0  0  0  0  0  0
   10.5271   -1.6484    0.0000 C   0  0  0  0  0  0  0  0  0  0  0  0
   12.1794   -5.6087    0.0000 C   0  0  0  0  0  0  0  0  0  0  0  0
    9.7128    0.9270    0.0000 C   0  0  0  0  0  0  0  0  0  0  0  0
    5.3147   -1.5938    0.0000 C   0  0  0  0  0  0  0  0  0  0  0  0
    2.1675    3.6351    0.0000 H   0  0  0  0  0  0  0  0  0  0  0  0
    2.9791    3.4626    0.0000 H   0  0  0  0  0  0  0  0  0  0  0  0
    4.0982    5.4008    0.0000 H   0  0  0  0  0  0  0  0  0  0  0  0
    3.5430    6.0174    0.0000 H   0  0  0  0  0  0  0  0  0  0  0  0
    1.4984    5.1071    0.0000 H   0  0  0  0  0  0  0  0  0  0  0  0
    1.5851    4.2819    0.0000 H   0  0  0  0  0  0  0  0  0  0  0  0
    2.6916    6.1983    0.0000 H   0  0  0  0  0  0  0  0  0  0  0  0
    1.9336    5.8608    0.0000 H   0  0  0  0  0  0  0  0  0  0  0  0
    5.0593    3.7986    0.0000 H   0  0  0  0  0  0  0  0  0  0  0  0
    4.6608    4.4888    0.0000 H   0  0  0  0  0  0  0  0  0  0  0  0
    3.8381    3.0139    0.0000 H   0  0  0  0  0  0  0  0  0  0  0  0
    4.2366    2.3236    0.0000 H   0  0  0  0  0  0  0  0  0  0  0  0
    5.9253    2.2986    0.0000 H   0  0  0  0  0  0  0  0  0  0  0  0
    5.5268    2.9888    0.0000 H   0  0  0  0  0  0  0  0  0  0  0  0
    7.0468    2.0262    0.0000 H   0  0  0  0  0  0  0  0  0  0  0  0
    7.0468   -1.2138    0.0000 H   0  0  0  0  0  0  0  0  0  0  0  0
   10.2826   -5.0791    0.0000 H   0  0  0  0  0  0  0  0  0  0  0  0
   12.7131   -3.7130    0.0000 H   0  0  0  0  0  0  0  0  0  0  0  0
   11.9278   -1.8546    0.0000 H   0  0  0  0  0  0  0  0  0  0  0  0
   10.5343   -1.0284    0.0000 H   0  0  0  0  0  0  0  0  0  0  0  0
   11.6389   -5.9124    0.0000 H   0  0  0  0  0  0  0  0  0  0  0  0
   12.4831   -6.1492    0.0000 H   0  0  0  0  0  0  0  0  0  0  0  0
   12.7198   -5.3049    0.0000 H   0  0  0  0  0  0  0  0  0  0  0  0
   10.2485    1.2391    0.0000 H   0  0  0  0  0  0  0  0  0  0  0  0
    4.6947   -1.5938    0.0000 H   0  0  0  0  0  0  0  0  0  0  0  0
    5.3147   -2.2138    0.0000 H   0  0  0  0  0  0  0  0  0  0  0  0
    5.9347   -1.5938    0.0000 H   0  0  0  0  0  0  0  0  0  0  0  0
  1 27  1  0  0  0  0
  2 15  1  0  0  0  0
  2 16  1  0  0  0  0
  3 26  1  0  0  0  0
  3 28  1  0  0  0  0
  4 17  1  0  0  0  0
  4 33  1  0  0  0  0
  5  9  1  0  0  0  0
  5 10  1  0  0  0  0
  5 13  1  0  0  0  0
  6 22  1  0  0  0  0
  6 24  1  0  0  0  0
  6 51  1  0  0  0  0
  7 20  1  0  0  0  0
  7 32  2  0  0  0  0
  8 26  2  0  0  0  0
  8 32  1  0  0  0  0
  9 11  1  0  0  0  0
  9 36  1  0  0  0  0
  9 37  1  0  0  0  0
 10 12  1  0  0  0  0
 10 34  1  0  0  0  0
 10 35  1  0  0  0  0
 11 12  1  0  0  0  0
 11 40  1  0  0  0  0
 11 41  1  0  0  0  0
 12 38  1  0  0  0  0
 12 39  1  0  0  0  0
 13 14  1  0  0  0  0
 13 42  1  0  0  0  0
 13 43  1  0  0  0  0
 14 15  1  0  0  0  0
 14 44  1  0  0  0  0
 14 45  1  0  0  0  0
 15 46  1  0  0  0  0
 15 47  1  0  0  0  0
 16 17  2  0  0  0  0
 16 18  1  0  0  0  0
 17 23  1  0  0  0  0
 18 20  2  0  0  0  0
 18 48  1  0  0  0  0
 19 20  1  0  0  0  0
 19 23  2  0  0  0  0
 19 26  1  0  0  0  0
 21 22  2  0  0  0  0
 21 25  1  0  0  0  0
 21 27  1  0  0  0  0
 22 29  1  0  0  0  0
 23 49  1  0  0  0  0
 24 25  2  0  0  0  0
 24 31  1  0  0  0  0
 25 50  1  0  0  0  0
 27 28  2  0  0  0  0
 28 30  1  0  0  0  0
 29 30  2  0  0  0  0
 29 52  1  0  0  0  0
 30 53  1  0  0  0  0
 31 54  1  0  0  0  0
 31 55  1  0  0  0  0
 31 56  1  0  0  0  0
 32 57  1  0  0  0  0
 33 58  1  0  0  0  0
 33 59  1  0  0  0  0
 33 60  1  0  0  0  0
M  END
> <PUBCHEM_COMPOUND_CID>
9933475

> <PUBCHEM_COMPOUND_CANONICALIZED>
1

> <PUBCHEM_CACTVS_COMPLEXITY>
625

> <PUBCHEM_CACTVS_HBOND_ACCEPTOR>
7

> <PUBCHEM_CACTVS_HBOND_DONOR>
1

> <PUBCHEM_CACTVS_ROTATABLE_BOND>
8

> <PUBCHEM_CACTVS_SUBSKEYS>
AAADceB7sQAAAAAAAAAAAAAAAAAAAWLAAAA8YIAAAAAAAFix/gAAHwAQAAAADAzhng431vfJlACgAyRjZACCiCkxIqAJ2SA+7JiNLuLE+duOPCru0BvK6Cfw8L8OIEABAgACQABAgAIEAASAAAAAAAAAAA==

> <PUBCHEM_IUPAC_OPENEYE_NAME>
4-[(4-fluoro-2-methyl-1H-indol-5-yl)oxy]-6-methoxy-7-(3-pyrrolidin-1-ylpropoxy)quinazoline

> <PUBCHEM_IUPAC_CAS_NAME>
4-[(4-fluoro-2-methyl-1H-indol-5-yl)oxy]-6-methoxy-7-[3-(1-pyrrolidinyl)propoxy]quinazoline

> <PUBCHEM_IUPAC_NAME>
4-[(4-fluoro-2-methyl-1H-indol-5-yl)oxy]-6-methoxy-7-(3-pyrrolidin-1-ylpropoxy)quinazoline

> <PUBCHEM_IUPAC_SYSTEMATIC_NAME>
4-[(4-fluoranyl-2-methyl-1H-indol-5-yl)oxy]-6-methoxy-7-(3-pyrrolidin-1-ylpropoxy)quinazoline

> <PUBCHEM_IUPAC_TRADITIONAL_NAME>
4-[(4-fluoro-2-methyl-1H-indol-5-yl)oxy]-6-methoxy-7-(3-pyrrolidinopropoxy)quinazoline

> <PUBCHEM_IUPAC_INCHI>
InChI=1S/C25H27FN4O3/c1-16-12-17-19(29-16)6-7-21(24(17)26)33-25-18-13-22(31-2)23(14-20(18)27-15-28-25)32-11-5-10-30-8-3-4-9-30/h6-7,12-15,29H,3-5,8-11H2,1-2H3

> <PUBCHEM_IUPAC_INCHIKEY>
XXJWYDDUDKYVKI-UHFFFAOYSA-N

> <PUBCHEM_XLOGP3_AA>
4.9

> <PUBCHEM_EXACT_MASS>
450.207

> <PUBCHEM_MOLECULAR_FORMULA>
C25H27FN4O3

> <PUBCHEM_MOLECULAR_WEIGHT>
450.514

> <PUBCHEM_OPENEYE_CAN_SMILES>
CC1=CC2=C(N1)C=CC(=C2F)OC3=NC=NC4=CC(=C(C=C43)OC)OCCCN5CCCC5

> <PUBCHEM_OPENEYE_ISO_SMILES>
CC1=CC2=C(N1)C=CC(=C2F)OC3=NC=NC4=CC(=C(C=C43)OC)OCCCN5CCCC5

> <PUBCHEM_CACTVS_TPSA>
72.5

> <PUBCHEM_MONOISOTOPIC_WEIGHT>
450.207

> <PUBCHEM_TOTAL_CHARGE>
0

> <PUBCHEM_HEAVY_ATOM_COUNT>
33

> <PUBCHEM_ATOM_DEF_STEREO_COUNT>
0

> <PUBCHEM_ATOM_UDEF_STEREO_COUNT>
0

> <PUBCHEM_BOND_DEF_STEREO_COUNT>
0

> <PUBCHEM_BOND_UDEF_STEREO_COUNT>
0

> <PUBCHEM_ISOTOPIC_ATOM_COUNT>
0

> <PUBCHEM_COMPONENT_COUNT>
1

> <PUBCHEM_CACTVS_TAUTO_COUNT>
1

> <PUBCHEM_COORDINATE_TYPE>
1
5
255

> <PUBCHEM_BONDANNOTATIONS>
16  17  8
16  18  8
17  23  8
18  20  8
19  20  8
19  23  8
19  26  8
21  22  8
21  25  8
21  27  8
22  29  8
24  25  8
27  28  8
28  30  8
29  30  8
6  22  8
6  24  8
7  20  8
7  32  8
8  26  8
8  32  8

$$$$
24180719
  -OEChem-11021605012D

 41 43  0     0  0  0  0  0  0999 V2000
    2.0000   -0.1311    0.0000 Cl  0  0  0  0  0  0  0  0  0  0  0  0
   10.1262   -0.2458    0.0000 S   0  0  0  0  0  0  0  0  0  0  0  0
    7.1906   -0.8645    0.0000 F   0  0  0  0  0  0  0  0  0  0  0  0
    6.4763    2.5252    0.0000 F   0  0  0  0  0  0  0  0  0  0  0  0
   10.3324   -1.2243    0.0000 O   0  0  0  0  0  0  0  0  0  0  0  0
    9.9199    0.7327    0.0000 O   0  0  0  0  0  0  0  0  0  0  0  0
    5.1871    1.3684    0.0000 O   0  0  0  0  0  0  0  0  0  0  0  0
    9.1477   -0.4520    0.0000 N   0  0  0  0  0  0  0  0  0  0  0  0
    5.5443   -1.9358    0.0000 N   0  0  0  0  0  0  0  0  0  0  0  0
    3.7320   -2.1311    0.0000 N   0  0  0  0  0  0  0  0  0  0  0  0
   11.1047   -0.0396    0.0000 C   0  0  0  0  0  0  0  0  0  0  0  0
   11.7725   -0.7839    0.0000 C   0  0  0  0  0  0  0  0  0  0  0  0
    8.4798    0.2923    0.0000 C   0  0  0  0  0  0  0  0  0  0  0  0
    5.5443   -0.3264    0.0000 C   0  0  0  0  0  0  0  0  0  0  0  0
    6.8335    0.8304    0.0000 C   0  0  0  0  0  0  0  0  0  0  0  0
    4.5981   -0.6311    0.0000 C   0  0  0  0  0  0  0  0  0  0  0  0
    7.5013    0.0861    0.0000 C   0  0  0  0  0  0  0  0  0  0  0  0
    5.8550    0.6241    0.0000 C   0  0  0  0  0  0  0  0  0  0  0  0
    4.5981   -1.6311    0.0000 C   0  0  0  0  0  0  0  0  0  0  0  0
    6.1279   -1.1311    0.0000 C   0  0  0  0  0  0  0  0  0  0  0  0
    8.7905    1.2428    0.0000 C   0  0  0  0  0  0  0  0  0  0  0  0
   12.7510   -0.5777    0.0000 C   0  0  0  0  0  0  0  0  0  0  0  0
    7.1441    1.7809    0.0000 C   0  0  0  0  0  0  0  0  0  0  0  0
    8.1226    1.9871    0.0000 C   0  0  0  0  0  0  0  0  0  0  0  0
    3.7320   -0.1311    0.0000 C   0  0  0  0  0  0  0  0  0  0  0  0
    2.8660   -0.6311    0.0000 C   0  0  0  0  0  0  0  0  0  0  0  0
    2.8660   -1.6311    0.0000 C   0  0  0  0  0  0  0  0  0  0  0  0
   11.6310    0.2880    0.0000 H   0  0  0  0  0  0  0  0  0  0  0  0
   10.8734    0.5357    0.0000 H   0  0  0  0  0  0  0  0  0  0  0  0
   11.2462   -1.1115    0.0000 H   0  0  0  0  0  0  0  0  0  0  0  0
   12.0038   -1.3592    0.0000 H   0  0  0  0  0  0  0  0  0  0  0  0
    8.9550   -1.0414    0.0000 H   0  0  0  0  0  0  0  0  0  0  0  0
    6.7479   -1.1311    0.0000 H   0  0  0  0  0  0  0  0  0  0  0  0
    9.3972    1.3706    0.0000 H   0  0  0  0  0  0  0  0  0  0  0  0
   12.8789   -1.1844    0.0000 H   0  0  0  0  0  0  0  0  0  0  0  0
   13.3577   -0.4498    0.0000 H   0  0  0  0  0  0  0  0  0  0  0  0
   12.6232    0.0290    0.0000 H   0  0  0  0  0  0  0  0  0  0  0  0
    5.7369   -2.5252    0.0000 H   0  0  0  0  0  0  0  0  0  0  0  0
    8.3152    2.5764    0.0000 H   0  0  0  0  0  0  0  0  0  0  0  0
    3.7320    0.4889    0.0000 H   0  0  0  0  0  0  0  0  0  0  0  0
    2.3291   -1.9411    0.0000 H   0  0  0  0  0  0  0  0  0  0  0  0
  1 26  1  0  0  0  0
  2  5  2  0  0  0  0
  2  6  2  0  0  0  0
  2  8  1  0  0  0  0
  2 11  1  0  0  0  0
  3 17  1  0  0  0  0
  4 23  1  0  0  0  0
  7 18  2  0  0  0  0
  8 13  1  0  0  0  0
  8 32  1  0  0  0  0
  9 19  1  0  0  0  0
  9 20  1  0  0  0  0
  9 38  1  0  0  0  0
 10 19  1  0  0  0  0
 10 27  2  0  0  0  0
 11 12  1  0  0  0  0
 11 28  1  0  0  0  0
 11 29  1  0  0  0  0
 12 22  1  0  0  0  0
 12 30  1  0  0  0  0
 12 31  1  0  0  0  0
 13 17  2  0  0  0  0
 13 21  1  0  0  0  0
 14 16  1  0  0  0  0
 14 18  1  0  0  0  0
 14 20  2  0  0  0  0
 15 17  1  0  0  0  0
 15 18  1  0  0  0  0
 15 23  2  0  0  0  0
 16 19  2  0  0  0  0
 16 25  1  0  0  0  0
 20 33  1  0  0  0  0
 21 24  2  0  0  0  0
 21 34  1  0  0  0  0
 22 35  1  0  0  0  0
 22 36  1  0  0  0  0
 22 37  1  0  0  0  0
 23 24  1  0  0  0  0
 24 39  1  0  0  0  0
 25 26  2  0  0  0  0
 25 40  1  0  0  0  0
 26 27  1  0  0  0  0
 27 41  1  0  0  0  0
M  END
> <PUBCHEM_COMPOUND_CID>
24180719

> <PUBCHEM_COMPOUND_CANONICALIZED>
1

> <PUBCHEM_CACTVS_COMPLEXITY>
648

> <PUBCHEM_CACTVS_HBOND_ACCEPTOR>
7

> <PUBCHEM_CACTVS_HBOND_DONOR>
2

> <PUBCHEM_CACTVS_ROTATABLE_BOND>
6

> <PUBCHEM_CACTVS_SUBSKEYS>
AAADccB7MYBEAAAAAAAAAAAAAAAAAWAAAAA8QAAAAAAAAFgB/AAAHwYQQAAADA7F2yy/8N7JkAKoArZ3ZHDCgCm1B6AJ2aEoZtiIKPrBn5HEIYhokALIyecciMCOgAAAQAAAAAAAAACAAAAAAAAAAAAAAA==

> <PUBCHEM_IUPAC_OPENEYE_NAME>
N-[3-(5-chloro-1H-pyrrolo[2,3-b]pyridine-3-carbonyl)-2,4-difluoro-phenyl]propane-1-sulfonamide

> <PUBCHEM_IUPAC_CAS_NAME>
N-[3-[(5-chloro-1H-pyrrolo[2,3-b]pyridin-3-yl)-oxomethyl]-2,4-difluorophenyl]-1-propanesulfonamide

> <PUBCHEM_IUPAC_NAME>
N-[3-(5-chloro-1H-pyrrolo[2,3-b]pyridine-3-carbonyl)-2,4-difluorophenyl]propane-1-sulfonamide

> <PUBCHEM_IUPAC_SYSTEMATIC_NAME>
N-[3-[(5-chloranyl-1H-pyrrolo[2,3-b]pyridin-3-yl)carbonyl]-2,4-bis(fluoranyl)phenyl]propane-1-sulfonamide

> <PUBCHEM_IUPAC_TRADITIONAL_NAME>
N-[3-(5-chloro-1H-pyrrolo[2,3-b]pyridine-3-carbonyl)-2,4-difluoro-phenyl]propane-1-sulfonamide

> <PUBCHEM_IUPAC_INCHI>
InChI=1S/C17H14ClF2N3O3S/c1-2-5-27(25,26)23-13-4-3-12(19)14(15(13)20)16(24)11-8-22-17-10(11)6-9(18)7-21-17/h3-4,6-8,23H,2,5H2,1H3,(H,21,22)

> <PUBCHEM_IUPAC_INCHIKEY>
YZDJQTHVDDOVHR-UHFFFAOYSA-N

> <PUBCHEM_XLOGP3_AA>
3.3

> <PUBCHEM_EXACT_MASS>
413.041

> <PUBCHEM_MOLECULAR_FORMULA>
C17H14ClF2N3O3S

> <PUBCHEM_MOLECULAR_WEIGHT>
413.824

> <PUBCHEM_OPENEYE_CAN_SMILES>
CCCS(=O)(=O)NC1=C(C(=C(C=C1)F)C(=O)C2=CNC3=NC=C(C=C23)Cl)F

> <PUBCHEM_OPENEYE_ISO_SMILES>
CCCS(=O)(=O)NC1=C(C(=C(C=C1)F)C(=O)C2=CNC3=NC=C(C=C23)Cl)F

> <PUBCHEM_CACTVS_TPSA>
100

> <PUBCHEM_MONOISOTOPIC_WEIGHT>
413.041

> <PUBCHEM_TOTAL_CHARGE>
0

> <PUBCHEM_HEAVY_ATOM_COUNT>
27

> <PUBCHEM_ATOM_DEF_STEREO_COUNT>
0

> <PUBCHEM_ATOM_UDEF_STEREO_COUNT>
0

> <PUBCHEM_BOND_DEF_STEREO_COUNT>
0

> <PUBCHEM_BOND_UDEF_STEREO_COUNT>
0

> <PUBCHEM_ISOTOPIC_ATOM_COUNT>
0

> <PUBCHEM_COMPONENT_COUNT>
1

> <PUBCHEM_CACTVS_TAUTO_COUNT>
4

> <PUBCHEM_COORDINATE_TYPE>
1
5
255

> <PUBCHEM_BONDANNOTATIONS>
10  19  8
10  27  8
13  17  8
13  21  8
14  16  8
14  20  8
15  17  8
15  23  8
16  19  8
16  25  8
21  24  8
23  24  8
25  26  8
26  27  8
9  19  8
9  20  8

$$$$
17027464
  -OEChem-11021605012D

 41 44  0     0  0  0  0  0  0999 V2000
    9.7260   -1.8660    0.0000 Cl  0  0  0  0  0  0  0  0  0  0  0  0
    8.4530    1.6213    0.0000 O   0  0  0  0  0  0  0  0  0  0  0  0
    4.5981   -1.1340    0.0000 O   0  0  0  0  0  0  0  0  0  0  0  0
    5.4641    0.3660    0.0000 N   0  0  0  0  0  0  0  0  0  0  0  0
    8.7260   -0.1340    0.0000 N   0  0  0  0  0  0  0  0  0  0  0  0
    8.1424   -0.9387    0.0000 N   0  0  0  0  0  0  0  0  0  0  0  0
    3.7320   -0.6340    0.0000 N   0  0  0  0  0  0  0  0  0  0  0  0
    7.1962    0.3660    0.0000 C   0  0  0  0  0  0  0  0  0  0  0  0
    6.3301    0.8660    0.0000 C   0  0  0  0  0  0  0  0  0  0  0  0
    7.1962   -0.6340    0.0000 C   0  0  0  0  0  0  0  0  0  0  0  0
    8.1424    0.6708    0.0000 C   0  0  0  0  0  0  0  0  0  0  0  0
    4.5981    0.8660    0.0000 C   0  0  0  0  0  0  0  0  0  0  0  0
    6.3301   -1.1340    0.0000 C   0  0  0  0  0  0  0  0  0  0  0  0
    5.4641   -0.6340    0.0000 C   0  0  0  0  0  0  0  0  0  0  0  0
    6.3301    1.8660    0.0000 C   0  0  0  0  0  0  0  0  0  0  0  0
    9.7260   -0.1340    0.0000 C   0  0  0  0  0  0  0  0  0  0  0  0
    3.7320    0.3660    0.0000 C   0  0  0  0  0  0  0  0  0  0  0  0
   10.2260   -1.0000    0.0000 C   0  0  0  0  0  0  0  0  0  0  0  0
   10.2260    0.7321    0.0000 C   0  0  0  0  0  0  0  0  0  0  0  0
    2.8660    0.8660    0.0000 C   0  0  0  0  0  0  0  0  0  0  0  0
   11.2260   -1.0000    0.0000 C   0  0  0  0  0  0  0  0  0  0  0  0
   11.2260    0.7321    0.0000 C   0  0  0  0  0  0  0  0  0  0  0  0
   11.7260   -0.1340    0.0000 C   0  0  0  0  0  0  0  0  0  0  0  0
    2.0000    0.3660    0.0000 C   0  0  0  0  0  0  0  0  0  0  0  0
    2.8660   -1.1340    0.0000 C   0  0  0  0  0  0  0  0  0  0  0  0
    2.0000   -0.6340    0.0000 C   0  0  0  0  0  0  0  0  0  0  0  0
    8.3350   -1.5280    0.0000 H   0  0  0  0  0  0  0  0  0  0  0  0
    4.9966    1.3410    0.0000 H   0  0  0  0  0  0  0  0  0  0  0  0
    4.1996    1.3410    0.0000 H   0  0  0  0  0  0  0  0  0  0  0  0
    6.3301   -1.7540    0.0000 H   0  0  0  0  0  0  0  0  0  0  0  0
    6.9501    1.8660    0.0000 H   0  0  0  0  0  0  0  0  0  0  0  0
    6.3301    2.4860    0.0000 H   0  0  0  0  0  0  0  0  0  0  0  0
    5.7101    1.8660    0.0000 H   0  0  0  0  0  0  0  0  0  0  0  0
    9.9160    1.2690    0.0000 H   0  0  0  0  0  0  0  0  0  0  0  0
    2.8660    1.4860    0.0000 H   0  0  0  0  0  0  0  0  0  0  0  0
   11.5360   -1.5369    0.0000 H   0  0  0  0  0  0  0  0  0  0  0  0
   11.5360    1.2690    0.0000 H   0  0  0  0  0  0  0  0  0  0  0  0
   12.3460   -0.1340    0.0000 H   0  0  0  0  0  0  0  0  0  0  0  0
    1.4631    0.6760    0.0000 H   0  0  0  0  0  0  0  0  0  0  0  0
    2.8660   -1.7540    0.0000 H   0  0  0  0  0  0  0  0  0  0  0  0
    1.4631   -0.9440    0.0000 H   0  0  0  0  0  0  0  0  0  0  0  0
  1 18  1  0  0  0  0
  2 11  2  0  0  0  0
  3 14  2  0  0  0  0
  4  9  1  0  0  0  0
  4 12  1  0  0  0  0
  4 14  1  0  0  0  0
  5  6  1  0  0  0  0
  5 11  1  0  0  0  0
  5 16  1  0  0  0  0
  6 10  1  0  0  0  0
  6 27  1  0  0  0  0
  7 17  1  0  0  0  0
  7 25  2  0  0  0  0
  8  9  2  0  0  0  0
  8 10  1  0  0  0  0
  8 11  1  0  0  0  0
  9 15  1  0  0  0  0
 10 13  2  0  0  0  0
 12 17  1  0  0  0  0
 12 28  1  0  0  0  0
 12 29  1  0  0  0  0
 13 14  1  0  0  0  0
 13 30  1  0  0  0  0
 15 31  1  0  0  0  0
 15 32  1  0  0  0  0
 15 33  1  0  0  0  0
 16 18  1  0  0  0  0
 16 19  2  0  0  0  0
 17 20  2  0  0  0  0
 18 21  2  0  0  0  0
 19 22  1  0  0  0  0
 19 34  1  0  0  0  0
 20 24  1  0  0  0  0
 20 35  1  0  0  0  0
 21 23  1  0  0  0  0
 21 36  1  0  0  0  0
 22 23  2  0  0  0  0
 22 37  1  0  0  0  0
 23 38  1  0  0  0  0
 24 26  2  0  0  0  0
 24 39  1  0  0  0  0
 25 26  1  0  0  0  0
 25 40  1  0  0  0  0
 26 41  1  0  0  0  0
M  END
> <PUBCHEM_COMPOUND_CID>
17027464

> <PUBCHEM_COMPOUND_CANONICALIZED>
1

> <PUBCHEM_CACTVS_COMPLEXITY>
675

> <PUBCHEM_CACTVS_HBOND_ACCEPTOR>
4

> <PUBCHEM_CACTVS_HBOND_DONOR>
1

> <PUBCHEM_CACTVS_ROTATABLE_BOND>
3

> <PUBCHEM_CACTVS_SUBSKEYS>
AAADccB7sAAEAAAAAAAAAAAAAAAAAWAAAAA8QIAAAAAAAEABwAAAHgIYAAAADArBliQ+wJNqEACoAzV3VACChCAxByAa+CE4ZtgIYOrB05HUIAhghgDIyUcQAAAAAAAAAAAAABAAAAAAAAAAIAAAAAAAAA==

> <PUBCHEM_IUPAC_OPENEYE_NAME>
2-(2-chlorophenyl)-4-methyl-5-(2-pyridylmethyl)-1H-pyrazolo[4,3-c]pyridine-3,6-dione

> <PUBCHEM_IUPAC_CAS_NAME>
2-(2-chlorophenyl)-4-methyl-5-(2-pyridinylmethyl)-1H-pyrazolo[4,3-c]pyridine-3,6-dione

> <PUBCHEM_IUPAC_NAME>
2-(2-chlorophenyl)-4-methyl-5-(pyridin-2-ylmethyl)-1H-pyrazolo[4,3-c]pyridine-3,6-dione

> <PUBCHEM_IUPAC_SYSTEMATIC_NAME>
2-(2-chlorophenyl)-4-methyl-5-(pyridin-2-ylmethyl)-1H-pyrazolo[4,3-c]pyridine-3,6-dione

> <PUBCHEM_IUPAC_TRADITIONAL_NAME>
2-(2-chlorophenyl)-4-methyl-5-(2-pyridylmethyl)-1H-pyrazolo[4,3-c]pyridine-3,6-quinone

> <PUBCHEM_IUPAC_INCHI>
InChI=1S/C19H15ClN4O2/c1-12-18-15(10-17(25)23(12)11-13-6-4-5-9-21-13)22-24(19(18)26)16-8-3-2-7-14(16)20/h2-10,22H,11H2,1H3

> <PUBCHEM_IUPAC_INCHIKEY>
DNKYHHFCPXKFIY-UHFFFAOYSA-N

> <PUBCHEM_XLOGP3_AA>
2.3

> <PUBCHEM_EXACT_MASS>
366.088

> <PUBCHEM_MOLECULAR_FORMULA>
C19H15ClN4O2

> <PUBCHEM_MOLECULAR_WEIGHT>
366.805

> <PUBCHEM_OPENEYE_CAN_SMILES>
CC1=C2C(=CC(=O)N1CC3=CC=CC=N3)NN(C2=O)C4=CC=CC=C4Cl

> <PUBCHEM_OPENEYE_ISO_SMILES>
CC1=C2C(=CC(=O)N1CC3=CC=CC=N3)NN(C2=O)C4=CC=CC=C4Cl

> <PUBCHEM_CACTVS_TPSA>
65.5

> <PUBCHEM_MONOISOTOPIC_WEIGHT>
366.088

> <PUBCHEM_TOTAL_CHARGE>
0

> <PUBCHEM_HEAVY_ATOM_COUNT>
26

> <PUBCHEM_ATOM_DEF_STEREO_COUNT>
0

> <PUBCHEM_ATOM_UDEF_STEREO_COUNT>
0

> <PUBCHEM_BOND_DEF_STEREO_COUNT>
0

> <PUBCHEM_BOND_UDEF_STEREO_COUNT>
0

> <PUBCHEM_ISOTOPIC_ATOM_COUNT>
0

> <PUBCHEM_COMPONENT_COUNT>
1

> <PUBCHEM_CACTVS_TAUTO_COUNT>
11

> <PUBCHEM_COORDINATE_TYPE>
1
5
255

> <PUBCHEM_BONDANNOTATIONS>
10  13  8
13  14  8
16  18  8
16  19  8
17  20  8
18  21  8
19  22  8
20  24  8
21  23  8
22  23  8
24  26  8
25  26  8
4  14  8
4  9  8
5  11  8
5  6  8
6  10  8
7  17  8
7  25  8
8  10  8
8  11  8
8  9  8

$$$$
3659633
  -OEChem-11021605012D

 34 37  0     0  0  0  0  0  0999 V2000
    3.0778    2.0230    0.0000 S   0  0  0  0  0  0  0  0  0  0  0  0
    4.1993    0.6381    0.0000 N   0  0  0  0  0  0  0  0  0  0  0  0
    2.6166    0.3017    0.0000 N   0  0  0  0  0  0  0  0  0  0  0  0
    3.1166   -0.5643    0.0000 N   0  0  0  0  0  0  0  0  0  0  0  0
    6.3242   -2.3638    0.0000 N   0  0  0  0  0  0  0  0  0  0  0  0
    5.0653    1.1381    0.0000 C   0  0  0  0  0  0  0  0  0  0  0  0
    6.7974    1.1381    0.0000 C   0  0  0  0  0  0  0  0  0  0  0  0
    4.0948   -0.3564    0.0000 C   0  0  0  0  0  0  0  0  0  0  0  0
    6.7974    2.1381    0.0000 C   0  0  0  0  0  0  0  0  0  0  0  0
    5.9313    0.6381    0.0000 C   0  0  0  0  0  0  0  0  0  0  0  0
    5.0653    2.1381    0.0000 C   0  0  0  0  0  0  0  0  0  0  0  0
    5.9313    2.6381    0.0000 C   0  0  0  0  0  0  0  0  0  0  0  0
    3.2857    1.0449    0.0000 C   0  0  0  0  0  0  0  0  0  0  0  0
    4.8379   -1.0255    0.0000 C   0  0  0  0  0  0  0  0  0  0  0  0
    7.6913    0.6035    0.0000 C   0  0  0  0  0  0  0  0  0  0  0  0
    7.6913    2.6728    0.0000 C   0  0  0  0  0  0  0  0  0  0  0  0
    8.5974    1.1173    0.0000 C   0  0  0  0  0  0  0  0  0  0  0  0
    8.5974    2.1590    0.0000 C   0  0  0  0  0  0  0  0  0  0  0  0
    5.7890   -0.7165    0.0000 C   0  0  0  0  0  0  0  0  0  0  0  0
    4.6300   -2.0037    0.0000 C   0  0  0  0  0  0  0  0  0  0  0  0
    6.5321   -1.3856    0.0000 C   0  0  0  0  0  0  0  0  0  0  0  0
    5.3731   -2.6728    0.0000 C   0  0  0  0  0  0  0  0  0  0  0  0
    5.9313    0.0181    0.0000 H   0  0  0  0  0  0  0  0  0  0  0  0
    4.5284    2.4481    0.0000 H   0  0  0  0  0  0  0  0  0  0  0  0
    5.9313    3.2581    0.0000 H   0  0  0  0  0  0  0  0  0  0  0  0
    7.6841   -0.0165    0.0000 H   0  0  0  0  0  0  0  0  0  0  0  0
    7.6841    3.2928    0.0000 H   0  0  0  0  0  0  0  0  0  0  0  0
    2.0000    0.3665    0.0000 H   0  0  0  0  0  0  0  0  0  0  0  0
    9.1331    0.8053    0.0000 H   0  0  0  0  0  0  0  0  0  0  0  0
    9.1331    2.4710    0.0000 H   0  0  0  0  0  0  0  0  0  0  0  0
    5.9179   -0.1100    0.0000 H   0  0  0  0  0  0  0  0  0  0  0  0
    4.0403   -2.1953    0.0000 H   0  0  0  0  0  0  0  0  0  0  0  0
    7.1218   -1.1940    0.0000 H   0  0  0  0  0  0  0  0  0  0  0  0
    5.2442   -3.2792    0.0000 H   0  0  0  0  0  0  0  0  0  0  0  0
  1 13  2  0  0  0  0
  2  6  1  0  0  0  0
  2  8  1  0  0  0  0
  2 13  1  0  0  0  0
  3  4  1  0  0  0  0
  3 13  1  0  0  0  0
  3 28  1  0  0  0  0
  4  8  2  0  0  0  0
  5 21  2  0  0  0  0
  5 22  1  0  0  0  0
  6 10  2  0  0  0  0
  6 11  1  0  0  0  0
  7  9  1  0  0  0  0
  7 10  1  0  0  0  0
  7 15  2  0  0  0  0
  8 14  1  0  0  0  0
  9 12  1  0  0  0  0
  9 16  2  0  0  0  0
 10 23  1  0  0  0  0
 11 12  2  0  0  0  0
 11 24  1  0  0  0  0
 12 25  1  0  0  0  0
 14 19  2  0  0  0  0
 14 20  1  0  0  0  0
 15 17  1  0  0  0  0
 15 26  1  0  0  0  0
 16 18  1  0  0  0  0
 16 27  1  0  0  0  0
 17 18  2  0  0  0  0
 17 29  1  0  0  0  0
 18 30  1  0  0  0  0
 19 21  1  0  0  0  0
 19 31  1  0  0  0  0
 20 22  2  0  0  0  0
 20 32  1  0  0  0  0
 21 33  1  0  0  0  0
 22 34  1  0  0  0  0
M  END
> <PUBCHEM_COMPOUND_CID>
3659633

> <PUBCHEM_COMPOUND_CANONICALIZED>
1

> <PUBCHEM_CACTVS_COMPLEXITY>
458

> <PUBCHEM_CACTVS_HBOND_ACCEPTOR>
3

> <PUBCHEM_CACTVS_HBOND_DONOR>
1

> <PUBCHEM_CACTVS_ROTATABLE_BOND>
2

> <PUBCHEM_CACTVS_SUBSKEYS>
AAADccB7gABAAAAAAAAAAAAAAAAAAQAAAAA8YIAAAAAAAADB1AAAHAQYAAAADAjBGgQ9wNNqEACkAjZnZACSgCAxAikN2CA4ZJiIIOLAmZGEIAhgiALIyCcQgIAOiAAAQAAQAAAQAACAACAAAAAAAAAAAA==

> <PUBCHEM_IUPAC_OPENEYE_NAME>
4-(2-naphthyl)-3-(4-pyridyl)-1H-1,2,4-triazole-5-thione

> <PUBCHEM_IUPAC_CAS_NAME>
4-(2-naphthalenyl)-3-pyridin-4-yl-1H-1,2,4-triazole-5-thione

> <PUBCHEM_IUPAC_NAME>
4-naphthalen-2-yl-3-pyridin-4-yl-1H-1,2,4-triazole-5-thione

> <PUBCHEM_IUPAC_SYSTEMATIC_NAME>
4-naphthalen-2-yl-3-pyridin-4-yl-1H-1,2,4-triazole-5-thione

> <PUBCHEM_IUPAC_TRADITIONAL_NAME>
4-(2-naphthyl)-3-(4-pyridyl)-1H-1,2,4-triazole-5-thione

> <PUBCHEM_IUPAC_INCHI>
InChI=1S/C17H12N4S/c22-17-20-19-16(13-7-9-18-10-8-13)21(17)15-6-5-12-3-1-2-4-14(12)11-15/h1-11H,(H,20,22)

> <PUBCHEM_IUPAC_INCHIKEY>
WGSPDZRJWDJTFY-UHFFFAOYSA-N

> <PUBCHEM_XLOGP3_AA>
3.4

> <PUBCHEM_EXACT_MASS>
304.078

> <PUBCHEM_MOLECULAR_FORMULA>
C17H12N4S

> <PUBCHEM_MOLECULAR_WEIGHT>
304.371

> <PUBCHEM_OPENEYE_CAN_SMILES>
C1=CC=C2C=C(C=CC2=C1)N3C(=NNC3=S)C4=CC=NC=C4

> <PUBCHEM_OPENEYE_ISO_SMILES>
C1=CC=C2C=C(C=CC2=C1)N3C(=NNC3=S)C4=CC=NC=C4

> <PUBCHEM_CACTVS_TPSA>
72.6

> <PUBCHEM_MONOISOTOPIC_WEIGHT>
304.078

> <PUBCHEM_TOTAL_CHARGE>
0

> <PUBCHEM_HEAVY_ATOM_COUNT>
22

> <PUBCHEM_ATOM_DEF_STEREO_COUNT>
0

> <PUBCHEM_ATOM_UDEF_STEREO_COUNT>
0

> <PUBCHEM_BOND_DEF_STEREO_COUNT>
0

> <PUBCHEM_BOND_UDEF_STEREO_COUNT>
0

> <PUBCHEM_ISOTOPIC_ATOM_COUNT>
0

> <PUBCHEM_COMPONENT_COUNT>
1

> <PUBCHEM_CACTVS_TAUTO_COUNT>
3

> <PUBCHEM_COORDINATE_TYPE>
1
5
255

> <PUBCHEM_BONDANNOTATIONS>
11  12  8
14  19  8
14  20  8
15  17  8
16  18  8
17  18  8
19  21  8
2  13  8
2  8  8
20  22  8
3  13  8
3  4  8
4  8  8
5  21  8
5  22  8
6  10  8
6  11  8
7  10  8
7  15  8
7  9  8
9  12  8
9  16  8

$$$$
51351528
  -OEChem-11021605012D

 40 42  0     0  0  0  0  0  0999 V2000
    6.4103   -3.1865    0.0000 S   0  0  0  0  0  0  0  0  0  0  0  0
    4.5981   -0.3818    0.0000 S   0  0  0  0  0  0  0  0  0  0  0  0
    7.6530    2.2250    0.0000 O   0  0  0  0  0  0  0  0  0  0  0  0
    2.8660    2.6182    0.0000 O   0  0  0  0  0  0  0  0  0  0  0  0
    2.0000    1.1182    0.0000 O   0  0  0  0  0  0  0  0  0  0  0  0
    4.5981   -3.3818    0.0000 N   0  0  0  0  0  0  0  0  0  0  0  0
    3.7320   -1.8818    0.0000 N   0  0  0  0  0  0  0  0  0  0  0  0
    6.4103   -1.5770    0.0000 C   0  0  0  0  0  0  0  0  0  0  0  0
    5.4641   -1.8818    0.0000 C   0  0  0  0  0  0  0  0  0  0  0  0
    6.7210   -0.6265    0.0000 C   0  0  0  0  0  0  0  0  0  0  0  0
    5.4641   -2.8818    0.0000 C   0  0  0  0  0  0  0  0  0  0  0  0
    4.5981   -1.3818    0.0000 C   0  0  0  0  0  0  0  0  0  0  0  0
    6.9939   -2.3818    0.0000 C   0  0  0  0  0  0  0  0  0  0  0  0
    7.6995   -0.4203    0.0000 C   0  0  0  0  0  0  0  0  0  0  0  0
    6.0531    0.1178    0.0000 C   0  0  0  0  0  0  0  0  0  0  0  0
    7.3423    1.2745    0.0000 C   0  0  0  0  0  0  0  0  0  0  0  0
    8.0102    0.5302    0.0000 C   0  0  0  0  0  0  0  0  0  0  0  0
    6.3638    1.0683    0.0000 C   0  0  0  0  0  0  0  0  0  0  0  0
    3.7320    0.1182    0.0000 C   0  0  0  0  0  0  0  0  0  0  0  0
    3.7320    1.1182    0.0000 C   0  0  0  0  0  0  0  0  0  0  0  0
    3.7320   -2.8818    0.0000 C   0  0  0  0  0  0  0  0  0  0  0  0
    8.6315    2.4313    0.0000 C   0  0  0  0  0  0  0  0  0  0  0  0
    2.8660    1.6182    0.0000 C   0  0  0  0  0  0  0  0  0  0  0  0
    8.9421    3.3818    0.0000 C   0  0  0  0  0  0  0  0  0  0  0  0
    7.6139   -2.3818    0.0000 H   0  0  0  0  0  0  0  0  0  0  0  0
    8.1136   -0.8818    0.0000 H   0  0  0  0  0  0  0  0  0  0  0  0
    5.4465   -0.0101    0.0000 H   0  0  0  0  0  0  0  0  0  0  0  0
    8.6168    0.6581    0.0000 H   0  0  0  0  0  0  0  0  0  0  0  0
    5.9497    1.5298    0.0000 H   0  0  0  0  0  0  0  0  0  0  0  0
    3.1215    0.2259    0.0000 H   0  0  0  0  0  0  0  0  0  0  0  0
    3.5200   -0.4644    0.0000 H   0  0  0  0  0  0  0  0  0  0  0  0
    4.3426    1.0106    0.0000 H   0  0  0  0  0  0  0  0  0  0  0  0
    3.9441    1.7008    0.0000 H   0  0  0  0  0  0  0  0  0  0  0  0
    3.1951   -3.1918    0.0000 H   0  0  0  0  0  0  0  0  0  0  0  0
    8.6520    1.8116    0.0000 H   0  0  0  0  0  0  0  0  0  0  0  0
    9.2453    2.3439    0.0000 H   0  0  0  0  0  0  0  0  0  0  0  0
    9.5315    3.1892    0.0000 H   0  0  0  0  0  0  0  0  0  0  0  0
    9.1348    3.9711    0.0000 H   0  0  0  0  0  0  0  0  0  0  0  0
    8.3528    3.5744    0.0000 H   0  0  0  0  0  0  0  0  0  0  0  0
    2.3291    2.9282    0.0000 H   0  0  0  0  0  0  0  0  0  0  0  0
  1 11  1  0  0  0  0
  1 13  1  0  0  0  0
  2 12  1  0  0  0  0
  2 19  1  0  0  0  0
  3 16  1  0  0  0  0
  3 22  1  0  0  0  0
  4 23  1  0  0  0  0
  4 40  1  0  0  0  0
  5 23  2  0  0  0  0
  6 11  1  0  0  0  0
  6 21  2  0  0  0  0
  7 12  2  0  0  0  0
  7 21  1  0  0  0  0
  8  9  1  0  0  0  0
  8 10  1  0  0  0  0
  8 13  2  0  0  0  0
  9 11  2  0  0  0  0
  9 12  1  0  0  0  0
 10 14  2  0  0  0  0
 10 15  1  0  0  0  0
 13 25  1  0  0  0  0
 14 17  1  0  0  0  0
 14 26  1  0  0  0  0
 15 18  2  0  0  0  0
 15 27  1  0  0  0  0
 16 17  2  0  0  0  0
 16 18  1  0  0  0  0
 17 28  1  0  0  0  0
 18 29  1  0  0  0  0
 19 20  1  0  0  0  0
 19 30  1  0  0  0  0
 19 31  1  0  0  0  0
 20 23  1  0  0  0  0
 20 32  1  0  0  0  0
 20 33  1  0  0  0  0
 21 34  1  0  0  0  0
 22 24  1  0  0  0  0
 22 35  1  0  0  0  0
 22 36  1  0  0  0  0
 24 37  1  0  0  0  0
 24 38  1  0  0  0  0
 24 39  1  0  0  0  0
M  END
> <PUBCHEM_COMPOUND_CID>
51351528

> <PUBCHEM_COMPOUND_CANONICALIZED>
1

> <PUBCHEM_CACTVS_COMPLEXITY>
419

> <PUBCHEM_CACTVS_HBOND_ACCEPTOR>
7

> <PUBCHEM_CACTVS_HBOND_DONOR>
1

> <PUBCHEM_CACTVS_ROTATABLE_BOND>
7

> <PUBCHEM_CACTVS_SUBSKEYS>
AAADceB7MABgAAAAAAAAAAAAAAAAASAAAAA8QAAAAAAAAFgB/AAAHgQACAAADASl2ga3n9YIFgisAiDzbACD2KlxKLgJ2DEuTJiMLiLk+duGfCzswBNo6CeQwPAOoAAAAAAAAABAAAAAAAAAAAAAAAAAAA==

> <PUBCHEM_IUPAC_OPENEYE_NAME>
3-[5-(4-ethoxyphenyl)thieno[2,3-d]pyrimidin-4-yl]sulfanylpropanoic acid

> <PUBCHEM_IUPAC_CAS_NAME>
3-[[5-(4-ethoxyphenyl)-4-thieno[2,3-d]pyrimidinyl]thio]propanoic acid

> <PUBCHEM_IUPAC_NAME>
3-[5-(4-ethoxyphenyl)thieno[2,3-d]pyrimidin-4-yl]sulfanylpropanoic acid

> <PUBCHEM_IUPAC_SYSTEMATIC_NAME>
3-[5-(4-ethoxyphenyl)thieno[2,3-d]pyrimidin-4-yl]sulfanylpropanoic acid

> <PUBCHEM_IUPAC_TRADITIONAL_NAME>
3-[(5-p-phenetylthieno[2,3-d]pyrimidin-4-yl)thio]propionic acid

> <PUBCHEM_IUPAC_INCHI>
InChI=1S/C17H16N2O3S2/c1-2-22-12-5-3-11(4-6-12)13-9-24-17-15(13)16(18-10-19-17)23-8-7-14(20)21/h3-6,9-10H,2,7-8H2,1H3,(H,20,21)

> <PUBCHEM_IUPAC_INCHIKEY>
BRXZQBGAUIEEBL-UHFFFAOYSA-N

> <PUBCHEM_XLOGP3_AA>
3.9

> <PUBCHEM_EXACT_MASS>
360.06

> <PUBCHEM_MOLECULAR_FORMULA>
C17H16N2O3S2

> <PUBCHEM_MOLECULAR_WEIGHT>
360.446

> <PUBCHEM_OPENEYE_CAN_SMILES>
CCOC1=CC=C(C=C1)C2=CSC3=C2C(=NC=N3)SCCC(=O)O

> <PUBCHEM_OPENEYE_ISO_SMILES>
CCOC1=CC=C(C=C1)C2=CSC3=C2C(=NC=N3)SCCC(=O)O

> <PUBCHEM_CACTVS_TPSA>
126

> <PUBCHEM_MONOISOTOPIC_WEIGHT>
360.06

> <PUBCHEM_TOTAL_CHARGE>
0

> <PUBCHEM_HEAVY_ATOM_COUNT>
24

> <PUBCHEM_ATOM_DEF_STEREO_COUNT>
0

> <PUBCHEM_ATOM_UDEF_STEREO_COUNT>
0

> <PUBCHEM_BOND_DEF_STEREO_COUNT>
0

> <PUBCHEM_BOND_UDEF_STEREO_COUNT>
0

> <PUBCHEM_ISOTOPIC_ATOM_COUNT>
0

> <PUBCHEM_COMPONENT_COUNT>
1

> <PUBCHEM_CACTVS_TAUTO_COUNT>
1

> <PUBCHEM_COORDINATE_TYPE>
1
5
255

> <PUBCHEM_BONDANNOTATIONS>
1  11  8
1  13  8
10  14  8
10  15  8
14  17  8
15  18  8
16  17  8
16  18  8
6  11  8
6  21  8
7  12  8
7  21  8
8  13  8
8  9  8
9  11  8
9  12  8

$$$$
1536915
  -OEChem-11021605012D

 36 38  0     0  0  0  0  0  0999 V2000
    6.4103   -2.9597    0.0000 S   0  0  0  0  0  0  0  0  0  0  0  0
    4.5981   -0.1550    0.0000 S   0  0  0  0  0  0  0  0  0  0  0  0
    2.8660    2.8450    0.0000 O   0  0  0  0  0  0  0  0  0  0  0  0
    2.0000    1.3450    0.0000 O   0  0  0  0  0  0  0  0  0  0  0  0
    4.5981   -3.1550    0.0000 N   0  0  0  0  0  0  0  0  0  0  0  0
    3.7320   -1.6550    0.0000 N   0  0  0  0  0  0  0  0  0  0  0  0
    6.4103   -1.3503    0.0000 C   0  0  0  0  0  0  0  0  0  0  0  0
    5.4641   -1.6550    0.0000 C   0  0  0  0  0  0  0  0  0  0  0  0
    6.7210   -0.3997    0.0000 C   0  0  0  0  0  0  0  0  0  0  0  0
    5.4641   -2.6550    0.0000 C   0  0  0  0  0  0  0  0  0  0  0  0
    4.5981   -1.1550    0.0000 C   0  0  0  0  0  0  0  0  0  0  0  0
    6.9939   -2.1550    0.0000 C   0  0  0  0  0  0  0  0  0  0  0  0
    6.0531    0.3446    0.0000 C   0  0  0  0  0  0  0  0  0  0  0  0
    7.6995   -0.1935    0.0000 C   0  0  0  0  0  0  0  0  0  0  0  0
    7.3423    1.5013    0.0000 C   0  0  0  0  0  0  0  0  0  0  0  0
    6.3638    1.2951    0.0000 C   0  0  0  0  0  0  0  0  0  0  0  0
    8.0102    0.7570    0.0000 C   0  0  0  0  0  0  0  0  0  0  0  0
    3.7320    0.3450    0.0000 C   0  0  0  0  0  0  0  0  0  0  0  0
    3.7320    1.3450    0.0000 C   0  0  0  0  0  0  0  0  0  0  0  0
    3.7320   -2.6550    0.0000 C   0  0  0  0  0  0  0  0  0  0  0  0
    7.6530    2.4518    0.0000 C   0  0  0  0  0  0  0  0  0  0  0  0
    2.8660    1.8450    0.0000 C   0  0  0  0  0  0  0  0  0  0  0  0
    7.6139   -2.1550    0.0000 H   0  0  0  0  0  0  0  0  0  0  0  0
    5.4465    0.2167    0.0000 H   0  0  0  0  0  0  0  0  0  0  0  0
    8.1136   -0.6550    0.0000 H   0  0  0  0  0  0  0  0  0  0  0  0
    5.9497    1.7565    0.0000 H   0  0  0  0  0  0  0  0  0  0  0  0
    8.6168    0.8848    0.0000 H   0  0  0  0  0  0  0  0  0  0  0  0
    3.1215    0.4527    0.0000 H   0  0  0  0  0  0  0  0  0  0  0  0
    3.5200   -0.2376    0.0000 H   0  0  0  0  0  0  0  0  0  0  0  0
    4.3426    1.2373    0.0000 H   0  0  0  0  0  0  0  0  0  0  0  0
    3.9441    1.9276    0.0000 H   0  0  0  0  0  0  0  0  0  0  0  0
    3.1951   -2.9650    0.0000 H   0  0  0  0  0  0  0  0  0  0  0  0
    8.2423    2.2592    0.0000 H   0  0  0  0  0  0  0  0  0  0  0  0
    7.8456    3.0411    0.0000 H   0  0  0  0  0  0  0  0  0  0  0  0
    7.0636    2.6444    0.0000 H   0  0  0  0  0  0  0  0  0  0  0  0
    2.3291    3.1550    0.0000 H   0  0  0  0  0  0  0  0  0  0  0  0
  1 10  1  0  0  0  0
  1 12  1  0  0  0  0
  2 11  1  0  0  0  0
  2 18  1  0  0  0  0
  3 22  1  0  0  0  0
  3 36  1  0  0  0  0
  4 22  2  0  0  0  0
  5 10  1  0  0  0  0
  5 20  2  0  0  0  0
  6 11  2  0  0  0  0
  6 20  1  0  0  0  0
  7  8  1  0  0  0  0
  7  9  1  0  0  0  0
  7 12  2  0  0  0  0
  8 10  2  0  0  0  0
  8 11  1  0  0  0  0
  9 13  2  0  0  0  0
  9 14  1  0  0  0  0
 12 23  1  0  0  0  0
 13 16  1  0  0  0  0
 13 24  1  0  0  0  0
 14 17  2  0  0  0  0
 14 25  1  0  0  0  0
 15 16  2  0  0  0  0
 15 17  1  0  0  0  0
 15 21  1  0  0  0  0
 16 26  1  0  0  0  0
 17 27  1  0  0  0  0
 18 19  1  0  0  0  0
 18 28  1  0  0  0  0
 18 29  1  0  0  0  0
 19 22  1  0  0  0  0
 19 30  1  0  0  0  0
 19 31  1  0  0  0  0
 20 32  1  0  0  0  0
 21 33  1  0  0  0  0
 21 34  1  0  0  0  0
 21 35  1  0  0  0  0
M  END
> <PUBCHEM_COMPOUND_CID>
1536915

> <PUBCHEM_COMPOUND_CANONICALIZED>
1

> <PUBCHEM_CACTVS_COMPLEXITY>
388

> <PUBCHEM_CACTVS_HBOND_ACCEPTOR>
6

> <PUBCHEM_CACTVS_HBOND_DONOR>
1

> <PUBCHEM_CACTVS_ROTATABLE_BOND>
5

> <PUBCHEM_CACTVS_SUBSKEYS>
AAADccB7MABgAAAAAAAAAAAAAAAAASAAAAA8QAAAAAAAAFgB/AAAHgQACAAADACF2gS3mdYIEgisAiDzbACD0KlxCLgJ2DEoRJiIKCLg2dGEZAxogAJoyCcQgMAOwAAAAAAAAACAAAAAAAAAAAAAAAAAAA==

> <PUBCHEM_IUPAC_OPENEYE_NAME>
3-[5-(p-tolyl)thieno[2,3-d]pyrimidin-4-yl]sulfanylpropanoic acid

> <PUBCHEM_IUPAC_CAS_NAME>
3-[[5-(4-methylphenyl)-4-thieno[2,3-d]pyrimidinyl]thio]propanoic acid

> <PUBCHEM_IUPAC_NAME>
3-[5-(4-methylphenyl)thieno[2,3-d]pyrimidin-4-yl]sulfanylpropanoic acid

> <PUBCHEM_IUPAC_SYSTEMATIC_NAME>
3-[5-(4-methylphenyl)thieno[2,3-d]pyrimidin-4-yl]sulfanylpropanoic acid

> <PUBCHEM_IUPAC_TRADITIONAL_NAME>
3-[[5-(p-tolyl)thieno[2,3-d]pyrimidin-4-yl]thio]propionic acid

> <PUBCHEM_IUPAC_INCHI>
InChI=1S/C16H14N2O2S2/c1-10-2-4-11(5-3-10)12-8-22-16-14(12)15(17-9-18-16)21-7-6-13(19)20/h2-5,8-9H,6-7H2,1H3,(H,19,20)

> <PUBCHEM_IUPAC_INCHIKEY>
RAOULLCLLOGTDA-UHFFFAOYSA-N

> <PUBCHEM_XLOGP3_AA>
3.9

> <PUBCHEM_EXACT_MASS>
330.05

> <PUBCHEM_MOLECULAR_FORMULA>
C16H14N2O2S2

> <PUBCHEM_MOLECULAR_WEIGHT>
330.42

> <PUBCHEM_OPENEYE_CAN_SMILES>
CC1=CC=C(C=C1)C2=CSC3=C2C(=NC=N3)SCCC(=O)O

> <PUBCHEM_OPENEYE_ISO_SMILES>
CC1=CC=C(C=C1)C2=CSC3=C2C(=NC=N3)SCCC(=O)O

> <PUBCHEM_CACTVS_TPSA>
117

> <PUBCHEM_MONOISOTOPIC_WEIGHT>
330.05

> <PUBCHEM_TOTAL_CHARGE>
0

> <PUBCHEM_HEAVY_ATOM_COUNT>
22

> <PUBCHEM_ATOM_DEF_STEREO_COUNT>
0

> <PUBCHEM_ATOM_UDEF_STEREO_COUNT>
0

> <PUBCHEM_BOND_DEF_STEREO_COUNT>
0

> <PUBCHEM_BOND_UDEF_STEREO_COUNT>
0

> <PUBCHEM_ISOTOPIC_ATOM_COUNT>
0

> <PUBCHEM_COMPONENT_COUNT>
1

> <PUBCHEM_CACTVS_TAUTO_COUNT>
1

> <PUBCHEM_COORDINATE_TYPE>
1
5
255

> <PUBCHEM_BONDANNOTATIONS>
1  10  8
1  12  8
13  16  8
14  17  8
15  16  8
15  17  8
5  10  8
5  20  8
6  11  8
6  20  8
7  12  8
7  8  8
8  10  8
8  11  8
9  13  8
9  14  8

$$$$
53261846
  -OEChem-11021605012D

 53 57  0     1  0  0  0  0  0999 V2000
    9.8900    3.8181    0.0000 F   0  0  0  0  0  0  0  0  0  0  0  0
    2.8660    1.5297    0.0000 O   0  0  0  0  0  0  0  0  0  0  0  0
    4.5981   -0.4703    0.0000 N   0  0  0  0  0  0  0  0  0  0  0  0
    4.5981    1.5297    0.0000 N   0  0  0  0  0  0  0  0  0  0  0  0
    6.3580   -0.5049    0.0000 N   0  0  0  0  0  0  0  0  0  0  0  0
    3.7891   -2.0581    0.0000 N   0  0  0  0  0  0  0  0  0  0  0  0
    4.0981   -3.0091    0.0000 N   0  0  0  0  0  0  0  0  0  0  0  0
    8.1282   -0.4944    0.0000 N   0  0  0  0  0  0  0  0  0  0  0  0
    7.2641    1.0505    0.0000 N   0  0  0  0  0  0  0  0  0  0  0  0
    9.7096   -0.8369    0.0000 N   0  0  0  0  0  0  0  0  0  0  0  0
    3.7320    0.0297    0.0000 C   0  0  2  0  0  0  0  0  0  0  0  0
    2.8660   -0.4703    0.0000 C   0  0  0  0  0  0  0  0  0  0  0  0
    3.7320    1.0297    0.0000 C   0  0  0  0  0  0  0  0  0  0  0  0
    5.4641    0.0297    0.0000 C   0  0  0  0  0  0  0  0  0  0  0  0
    5.4641    1.0297    0.0000 C   0  0  0  0  0  0  0  0  0  0  0  0
    4.5981   -1.4703    0.0000 C   0  0  0  0  0  0  0  0  0  0  0  0
    2.0000    0.0297    0.0000 C   0  0  0  0  0  0  0  0  0  0  0  0
    4.5981    2.5297    0.0000 C   0  0  0  0  0  0  0  0  0  0  0  0
    6.3580    1.5644    0.0000 C   0  0  0  0  0  0  0  0  0  0  0  0
    5.4071   -2.0581    0.0000 C   0  0  0  0  0  0  0  0  0  0  0  0
    7.2641    0.0089    0.0000 C   0  0  0  0  0  0  0  0  0  0  0  0
    5.0981   -3.0091    0.0000 C   0  0  0  0  0  0  0  0  0  0  0  0
    9.0433   -0.0912    0.0000 C   0  0  0  0  0  0  0  0  0  0  0  0
    8.2289   -1.4894    0.0000 C   0  0  0  0  0  0  0  0  0  0  0  0
    3.5103   -3.8181    0.0000 C   0  0  0  0  0  0  0  0  0  0  0  0
    9.2550    0.8861    0.0000 C   0  0  0  0  0  0  0  0  0  0  0  0
    9.2062   -1.7010    0.0000 C   0  0  0  0  0  0  0  0  0  0  0  0
    8.5144    1.5581    0.0000 C   0  0  0  0  0  0  0  0  0  0  0  0
   10.2072    1.1915    0.0000 C   0  0  0  0  0  0  0  0  0  0  0  0
    8.7261    2.5354    0.0000 C   0  0  0  0  0  0  0  0  0  0  0  0
   10.4189    2.1688    0.0000 C   0  0  0  0  0  0  0  0  0  0  0  0
    9.6784    2.8408    0.0000 C   0  0  0  0  0  0  0  0  0  0  0  0
    3.7320   -0.5903    0.0000 H   0  0  0  0  0  0  0  0  0  0  0  0
    2.4675   -0.9452    0.0000 H   0  0  0  0  0  0  0  0  0  0  0  0
    3.2646   -0.9452    0.0000 H   0  0  0  0  0  0  0  0  0  0  0  0
    2.3100    0.5667    0.0000 H   0  0  0  0  0  0  0  0  0  0  0  0
    1.4631    0.3397    0.0000 H   0  0  0  0  0  0  0  0  0  0  0  0
    1.6900   -0.5072    0.0000 H   0  0  0  0  0  0  0  0  0  0  0  0
    5.2181    2.5297    0.0000 H   0  0  0  0  0  0  0  0  0  0  0  0
    4.5981    3.1497    0.0000 H   0  0  0  0  0  0  0  0  0  0  0  0
    3.9781    2.5297    0.0000 H   0  0  0  0  0  0  0  0  0  0  0  0
    6.3509    2.1843    0.0000 H   0  0  0  0  0  0  0  0  0  0  0  0
    5.9967   -1.8665    0.0000 H   0  0  0  0  0  0  0  0  0  0  0  0
    5.4625   -3.5107    0.0000 H   0  0  0  0  0  0  0  0  0  0  0  0
    7.7666   -1.9024    0.0000 H   0  0  0  0  0  0  0  0  0  0  0  0
    3.0087   -3.4537    0.0000 H   0  0  0  0  0  0  0  0  0  0  0  0
    3.1459   -4.3197    0.0000 H   0  0  0  0  0  0  0  0  0  0  0  0
    4.0119   -4.1826    0.0000 H   0  0  0  0  0  0  0  0  0  0  0  0
    9.4562   -2.2684    0.0000 H   0  0  0  0  0  0  0  0  0  0  0  0
    7.9240    1.3688    0.0000 H   0  0  0  0  0  0  0  0  0  0  0  0
   10.6664    0.7748    0.0000 H   0  0  0  0  0  0  0  0  0  0  0  0
    8.2670    2.9521    0.0000 H   0  0  0  0  0  0  0  0  0  0  0  0
   11.0093    2.3581    0.0000 H   0  0  0  0  0  0  0  0  0  0  0  0
  1 32  1  0  0  0  0
  2 13  2  0  0  0  0
  3 11  1  0  0  0  0
  3 14  1  0  0  0  0
  3 16  1  0  0  0  0
  4 13  1  0  0  0  0
  4 15  1  0  0  0  0
  4 18  1  0  0  0  0
  5 14  2  0  0  0  0
  5 21  1  0  0  0  0
  6  7  1  0  0  0  0
  6 16  2  0  0  0  0
  7 22  1  0  0  0  0
  7 25  1  0  0  0  0
  8 21  1  0  0  0  0
  8 23  1  0  0  0  0
  8 24  1  0  0  0  0
  9 19  1  0  0  0  0
  9 21  2  0  0  0  0
 10 23  2  0  0  0  0
 10 27  1  0  0  0  0
 11 12  1  6  0  0  0
 11 13  1  0  0  0  0
 11 33  1  0  0  0  0
 12 17  1  0  0  0  0
 12 34  1  0  0  0  0
 12 35  1  0  0  0  0
 14 15  1  0  0  0  0
 15 19  2  0  0  0  0
 16 20  1  0  0  0  0
 17 36  1  0  0  0  0
 17 37  1  0  0  0  0
 17 38  1  0  0  0  0
 18 39  1  0  0  0  0
 18 40  1  0  0  0  0
 18 41  1  0  0  0  0
 19 42  1  0  0  0  0
 20 22  2  0  0  0  0
 20 43  1  0  0  0  0
 22 44  1  0  0  0  0
 23 26  1  0  0  0  0
 24 27  2  0  0  0  0
 24 45  1  0  0  0  0
 25 46  1  0  0  0  0
 25 47  1  0  0  0  0
 25 48  1  0  0  0  0
 26 28  2  0  0  0  0
 26 29  1  0  0  0  0
 27 49  1  0  0  0  0
 28 30  1  0  0  0  0
 28 50  1  0  0  0  0
 29 31  2  0  0  0  0
 29 51  1  0  0  0  0
 30 32  2  0  0  0  0
 30 52  1  0  0  0  0
 31 32  1  0  0  0  0
 31 53  1  0  0  0  0
M  END
> <PUBCHEM_COMPOUND_CID>
53261846

> <PUBCHEM_COMPOUND_CANONICALIZED>
1

> <PUBCHEM_CACTVS_COMPLEXITY>
676

> <PUBCHEM_CACTVS_HBOND_ACCEPTOR>
7

> <PUBCHEM_CACTVS_HBOND_DONOR>
0

> <PUBCHEM_CACTVS_ROTATABLE_BOND>
4

> <PUBCHEM_CACTVS_SUBSKEYS>
AAADceB74QAAAAAAAAAAAAAAAAAAAWLAAAA8WIAAAAAAAACx/AAAHwAIAAAADCjBmww/8JcMEACqAjd3dACShC8xkqAd2CG4dJiIaPLA2XGUpAhojgLIiCcQgAAOAAAAAAAAAAAAAAAAAAAAAAAAAAAAAA==

> <PUBCHEM_IUPAC_OPENEYE_NAME>
(7R)-7-ethyl-2-[2-(4-fluorophenyl)imidazol-1-yl]-5-methyl-8-(1-methylpyrazol-3-yl)-7H-pteridin-6-one

> <PUBCHEM_IUPAC_CAS_NAME>
(7R)-7-ethyl-2-[2-(4-fluorophenyl)-1-imidazolyl]-5-methyl-8-(1-methyl-3-pyrazolyl)-7H-pteridin-6-one

> <PUBCHEM_IUPAC_NAME>
(7R)-7-ethyl-2-[2-(4-fluorophenyl)imidazol-1-yl]-5-methyl-8-(1-methylpyrazol-3-yl)-7H-pteridin-6-one

> <PUBCHEM_IUPAC_SYSTEMATIC_NAME>
(7R)-7-ethyl-2-[2-(4-fluorophenyl)imidazol-1-yl]-5-methyl-8-(1-methylpyrazol-3-yl)-7H-pteridin-6-one

> <PUBCHEM_IUPAC_TRADITIONAL_NAME>
(7R)-7-ethyl-2-[2-(4-fluorophenyl)imidazol-1-yl]-5-methyl-8-(1-methylpyrazol-3-yl)-7H-pteridin-6-one

> <PUBCHEM_IUPAC_INCHI>
InChI=1S/C22H21FN8O/c1-4-16-21(32)29(3)17-13-25-22(26-20(17)31(16)18-9-11-28(2)27-18)30-12-10-24-19(30)14-5-7-15(23)8-6-14/h5-13,16H,4H2,1-3H3/t16-/m1/s1

> <PUBCHEM_IUPAC_INCHIKEY>
JMVCDNFYMJCUDW-MRXNPFEDSA-N

> <PUBCHEM_XLOGP3_AA>
2.8

> <PUBCHEM_EXACT_MASS>
432.182

> <PUBCHEM_MOLECULAR_FORMULA>
C22H21FN8O

> <PUBCHEM_MOLECULAR_WEIGHT>
432.463

> <PUBCHEM_OPENEYE_CAN_SMILES>
CCC1C(=O)N(C2=CN=C(N=C2N1C3=NN(C=C3)C)N4C=CN=C4C5=CC=C(C=C5)F)C

> <PUBCHEM_OPENEYE_ISO_SMILES>
CC[C@@H]1C(=O)N(C2=CN=C(N=C2N1C3=NN(C=C3)C)N4C=CN=C4C5=CC=C(C=C5)F)C

> <PUBCHEM_CACTVS_TPSA>
85

> <PUBCHEM_MONOISOTOPIC_WEIGHT>
432.182

> <PUBCHEM_TOTAL_CHARGE>
0

> <PUBCHEM_HEAVY_ATOM_COUNT>
32

> <PUBCHEM_ATOM_DEF_STEREO_COUNT>
1

> <PUBCHEM_ATOM_UDEF_STEREO_COUNT>
0

> <PUBCHEM_BOND_DEF_STEREO_COUNT>
0

> <PUBCHEM_BOND_UDEF_STEREO_COUNT>
0

> <PUBCHEM_ISOTOPIC_ATOM_COUNT>
0

> <PUBCHEM_COMPONENT_COUNT>
1

> <PUBCHEM_CACTVS_TAUTO_COUNT>
2

> <PUBCHEM_COORDINATE_TYPE>
1
5
255

> <PUBCHEM_BONDANNOTATIONS>
10  23  8
10  27  8
11  12  6
14  15  8
15  19  8
16  20  8
20  22  8
24  27  8
26  28  8
26  29  8
28  30  8
29  31  8
30  32  8
31  32  8
5  14  8
5  21  8
6  16  8
6  7  8
7  22  8
8  23  8
8  24  8
9  19  8
9  21  8

$$$$
1285732
  -OEChem-11021605012D

 32 34  0     0  0  0  0  0  0999 V2000
    8.0785   -1.4746    0.0000 Br  0  0  0  0  0  0  0  0  0  0  0  0
    9.8602    1.5842    0.0000 Br  0  0  0  0  0  0  0  0  0  0  0  0
    6.3301   -0.4400    0.0000 O   0  0  0  0  0  0  0  0  0  0  0  0
    2.0000    0.0600    0.0000 O   0  0  0  0  0  0  0  0  0  0  0  0
    6.3301    2.5600    0.0000 O   0  0  0  0  0  0  0  0  0  0  0  0
    2.0000   -1.9400    0.0000 O   0  0  0  0  0  0  0  0  0  0  0  0
    5.4641    0.0600    0.0000 C   0  0  0  0  0  0  0  0  0  0  0  0
    7.1962    1.0600    0.0000 C   0  0  0  0  0  0  0  0  0  0  0  0
    4.5981   -0.4400    0.0000 C   0  0  0  0  0  0  0  0  0  0  0  0
    7.1962    0.0600    0.0000 C   0  0  0  0  0  0  0  0  0  0  0  0
    5.4641    1.0600    0.0000 C   0  0  0  0  0  0  0  0  0  0  0  0
    6.3301    1.5600    0.0000 C   0  0  0  0  0  0  0  0  0  0  0  0
    3.7320    0.0600    0.0000 C   0  0  0  0  0  0  0  0  0  0  0  0
    8.0901    1.5947    0.0000 C   0  0  0  0  0  0  0  0  0  0  0  0
    4.5981   -1.4400    0.0000 C   0  0  0  0  0  0  0  0  0  0  0  0
    8.0901   -0.4747    0.0000 C   0  0  0  0  0  0  0  0  0  0  0  0
    2.8660   -0.4400    0.0000 C   0  0  0  0  0  0  0  0  0  0  0  0
    3.7320   -1.9400    0.0000 C   0  0  0  0  0  0  0  0  0  0  0  0
    2.8660   -1.4400    0.0000 C   0  0  0  0  0  0  0  0  0  0  0  0
    8.9962    1.0808    0.0000 C   0  0  0  0  0  0  0  0  0  0  0  0
    8.9962    0.0392    0.0000 C   0  0  0  0  0  0  0  0  0  0  0  0
    2.0000    1.0600    0.0000 C   0  0  0  0  0  0  0  0  0  0  0  0
    4.9272    1.3700    0.0000 H   0  0  0  0  0  0  0  0  0  0  0  0
    3.7320    0.6800    0.0000 H   0  0  0  0  0  0  0  0  0  0  0  0
    8.0829    2.2146    0.0000 H   0  0  0  0  0  0  0  0  0  0  0  0
    5.1350   -1.7500    0.0000 H   0  0  0  0  0  0  0  0  0  0  0  0
    3.7320   -2.5600    0.0000 H   0  0  0  0  0  0  0  0  0  0  0  0
    9.5319   -0.2729    0.0000 H   0  0  0  0  0  0  0  0  0  0  0  0
    2.0000   -2.5600    0.0000 H   0  0  0  0  0  0  0  0  0  0  0  0
    2.6200    1.0600    0.0000 H   0  0  0  0  0  0  0  0  0  0  0  0
    2.0000    1.6800    0.0000 H   0  0  0  0  0  0  0  0  0  0  0  0
    1.3800    1.0600    0.0000 H   0  0  0  0  0  0  0  0  0  0  0  0
  1 16  1  0  0  0  0
  2 20  1  0  0  0  0
  3  7  1  0  0  0  0
  3 10  1  0  0  0  0
  4 17  1  0  0  0  0
  4 22  1  0  0  0  0
  5 12  2  0  0  0  0
  6 19  1  0  0  0  0
  6 29  1  0  0  0  0
  7  9  1  0  0  0  0
  7 11  2  0  0  0  0
  8 10  2  0  0  0  0
  8 12  1  0  0  0  0
  8 14  1  0  0  0  0
  9 13  2  0  0  0  0
  9 15  1  0  0  0  0
 10 16  1  0  0  0  0
 11 12  1  0  0  0  0
 11 23  1  0  0  0  0
 13 17  1  0  0  0  0
 13 24  1  0  0  0  0
 14 20  2  0  0  0  0
 14 25  1  0  0  0  0
 15 18  2  0  0  0  0
 15 26  1  0  0  0  0
 16 21  2  0  0  0  0
 17 19  2  0  0  0  0
 18 19  1  0  0  0  0
 18 27  1  0  0  0  0
 20 21  1  0  0  0  0
 21 28  1  0  0  0  0
 22 30  1  0  0  0  0
 22 31  1  0  0  0  0
 22 32  1  0  0  0  0
M  END
> <PUBCHEM_COMPOUND_CID>
1285732

> <PUBCHEM_COMPOUND_CANONICALIZED>
1

> <PUBCHEM_CACTVS_COMPLEXITY>
467

> <PUBCHEM_CACTVS_HBOND_ACCEPTOR>
4

> <PUBCHEM_CACTVS_HBOND_DONOR>
1

> <PUBCHEM_CACTVS_ROTATABLE_BOND>
2

> <PUBCHEM_CACTVS_SUBSKEYS>
AAADccB4OAAAGAAAAAAAAAAAAAAAAAAAAAAwYIAAAAAAAACBQAAAGgBACAABrASAmAIyBoAABgCIAqBSAAACCAAkIAQIiAEGiOgNJjaGNRqCeWOk4BELu5fI6LyOIBABEAAoRABAIAIgAFCIAAAAAAAAAA==

> <PUBCHEM_IUPAC_OPENEYE_NAME>
6,8-dibromo-2-(4-hydroxy-3-methoxy-phenyl)chromen-4-one

> <PUBCHEM_IUPAC_CAS_NAME>
6,8-dibromo-2-(4-hydroxy-3-methoxyphenyl)-1-benzopyran-4-one

> <PUBCHEM_IUPAC_NAME>
6,8-dibromo-2-(4-hydroxy-3-methoxyphenyl)chromen-4-one

> <PUBCHEM_IUPAC_SYSTEMATIC_NAME>
6,8-bis(bromanyl)-2-(3-methoxy-4-oxidanyl-phenyl)chromen-4-one

> <PUBCHEM_IUPAC_TRADITIONAL_NAME>
6,8-dibromo-2-(4-hydroxy-3-methoxy-phenyl)chromone

> <PUBCHEM_IUPAC_INCHI>
InChI=1S/C16H10Br2O4/c1-21-15-4-8(2-3-12(15)19)14-7-13(20)10-5-9(17)6-11(18)16(10)22-14/h2-7,19H,1H3

> <PUBCHEM_IUPAC_INCHIKEY>
RTWUBZKPEZFNIJ-UHFFFAOYSA-N

> <PUBCHEM_XLOGP3_AA>
4.2

> <PUBCHEM_EXACT_MASS>
425.893

> <PUBCHEM_MOLECULAR_FORMULA>
C16H10Br2O4

> <PUBCHEM_MOLECULAR_WEIGHT>
426.06

> <PUBCHEM_OPENEYE_CAN_SMILES>
COC1=C(C=CC(=C1)C2=CC(=O)C3=CC(=CC(=C3O2)Br)Br)O

> <PUBCHEM_OPENEYE_ISO_SMILES>
COC1=C(C=CC(=C1)C2=CC(=O)C3=CC(=CC(=C3O2)Br)Br)O

> <PUBCHEM_CACTVS_TPSA>
55.8

> <PUBCHEM_MONOISOTOPIC_WEIGHT>
423.895

> <PUBCHEM_TOTAL_CHARGE>
0

> <PUBCHEM_HEAVY_ATOM_COUNT>
22

> <PUBCHEM_ATOM_DEF_STEREO_COUNT>
0

> <PUBCHEM_ATOM_UDEF_STEREO_COUNT>
0

> <PUBCHEM_BOND_DEF_STEREO_COUNT>
0

> <PUBCHEM_BOND_UDEF_STEREO_COUNT>
0

> <PUBCHEM_ISOTOPIC_ATOM_COUNT>
0

> <PUBCHEM_COMPONENT_COUNT>
1

> <PUBCHEM_CACTVS_TAUTO_COUNT>
6

> <PUBCHEM_COORDINATE_TYPE>
1
5
255

> <PUBCHEM_BONDANNOTATIONS>
10  16  8
11  12  8
13  17  8
14  20  8
15  18  8
16  21  8
17  19  8
18  19  8
20  21  8
3  10  8
3  7  8
7  11  8
8  10  8
8  12  8
8  14  8
9  13  8
9  15  8

$$$$
52113458
  -OEChem-11021605012D

 35 37  0     0  0  0  0  0  0999 V2000
    9.8602    1.5842    0.0000 Cl  0  0  0  0  0  0  0  0  0  0  0  0
    6.3301   -0.4400    0.0000 O   0  0  0  0  0  0  0  0  0  0  0  0
    2.0000    0.0600    0.0000 O   0  0  0  0  0  0  0  0  0  0  0  0
    6.3301    2.5600    0.0000 O   0  0  0  0  0  0  0  0  0  0  0  0
    2.0000   -1.9400    0.0000 O   0  0  0  0  0  0  0  0  0  0  0  0
    7.1962    0.0600    0.0000 C   0  0  0  0  0  0  0  0  0  0  0  0
    7.1962    1.0600    0.0000 C   0  0  0  0  0  0  0  0  0  0  0  0
    5.4641    0.0600    0.0000 C   0  0  0  0  0  0  0  0  0  0  0  0
    8.0901   -0.4747    0.0000 C   0  0  0  0  0  0  0  0  0  0  0  0
    4.5981   -0.4400    0.0000 C   0  0  0  0  0  0  0  0  0  0  0  0
    6.3301    1.5600    0.0000 C   0  0  0  0  0  0  0  0  0  0  0  0
    5.4641    1.0600    0.0000 C   0  0  0  0  0  0  0  0  0  0  0  0
    8.0901    1.5947    0.0000 C   0  0  0  0  0  0  0  0  0  0  0  0
    8.9962    0.0392    0.0000 C   0  0  0  0  0  0  0  0  0  0  0  0
    8.9962    1.0808    0.0000 C   0  0  0  0  0  0  0  0  0  0  0  0
    3.7320    0.0600    0.0000 C   0  0  0  0  0  0  0  0  0  0  0  0
    8.0785   -1.4746    0.0000 C   0  0  0  0  0  0  0  0  0  0  0  0
    4.5981   -1.4400    0.0000 C   0  0  0  0  0  0  0  0  0  0  0  0
    2.8660   -0.4400    0.0000 C   0  0  0  0  0  0  0  0  0  0  0  0
    3.7320   -1.9400    0.0000 C   0  0  0  0  0  0  0  0  0  0  0  0
    2.8660   -1.4400    0.0000 C   0  0  0  0  0  0  0  0  0  0  0  0
    2.0000    1.0600    0.0000 C   0  0  0  0  0  0  0  0  0  0  0  0
    4.9272    1.3700    0.0000 H   0  0  0  0  0  0  0  0  0  0  0  0
    8.0829    2.2146    0.0000 H   0  0  0  0  0  0  0  0  0  0  0  0
    9.5319   -0.2729    0.0000 H   0  0  0  0  0  0  0  0  0  0  0  0
    3.7320    0.6800    0.0000 H   0  0  0  0  0  0  0  0  0  0  0  0
    7.4586   -1.4674    0.0000 H   0  0  0  0  0  0  0  0  0  0  0  0
    8.0714   -2.0946    0.0000 H   0  0  0  0  0  0  0  0  0  0  0  0
    8.6985   -1.4818    0.0000 H   0  0  0  0  0  0  0  0  0  0  0  0
    5.1350   -1.7500    0.0000 H   0  0  0  0  0  0  0  0  0  0  0  0
    3.7320   -2.5600    0.0000 H   0  0  0  0  0  0  0  0  0  0  0  0
    2.0000   -2.5600    0.0000 H   0  0  0  0  0  0  0  0  0  0  0  0
    2.6200    1.0600    0.0000 H   0  0  0  0  0  0  0  0  0  0  0  0
    2.0000    1.6800    0.0000 H   0  0  0  0  0  0  0  0  0  0  0  0
    1.3800    1.0600    0.0000 H   0  0  0  0  0  0  0  0  0  0  0  0
  1 15  1  0  0  0  0
  2  6  1  0  0  0  0
  2  8  1  0  0  0  0
  3 19  1  0  0  0  0
  3 22  1  0  0  0  0
  4 11  2  0  0  0  0
  5 21  1  0  0  0  0
  5 32  1  0  0  0  0
  6  7  2  0  0  0  0
  6  9  1  0  0  0  0
  7 11  1  0  0  0  0
  7 13  1  0  0  0  0
  8 10  1  0  0  0  0
  8 12  2  0  0  0  0
  9 14  2  0  0  0  0
  9 17  1  0  0  0  0
 10 16  2  0  0  0  0
 10 18  1  0  0  0  0
 11 12  1  0  0  0  0
 12 23  1  0  0  0  0
 13 15  2  0  0  0  0
 13 24  1  0  0  0  0
 14 15  1  0  0  0  0
 14 25  1  0  0  0  0
 16 19  1  0  0  0  0
 16 26  1  0  0  0  0
 17 27  1  0  0  0  0
 17 28  1  0  0  0  0
 17 29  1  0  0  0  0
 18 20  2  0  0  0  0
 18 30  1  0  0  0  0
 19 21  2  0  0  0  0
 20 21  1  0  0  0  0
 20 31  1  0  0  0  0
 22 33  1  0  0  0  0
 22 34  1  0  0  0  0
 22 35  1  0  0  0  0
M  END
> <PUBCHEM_COMPOUND_CID>
52113458

> <PUBCHEM_COMPOUND_CANONICALIZED>
1

> <PUBCHEM_CACTVS_COMPLEXITY>
464

> <PUBCHEM_CACTVS_HBOND_ACCEPTOR>
4

> <PUBCHEM_CACTVS_HBOND_DONOR>
1

> <PUBCHEM_CACTVS_ROTATABLE_BOND>
2

> <PUBCHEM_CACTVS_SUBSKEYS>
AAADccB4OAAEAAAAAAAAAAAAAAAAAAAAAAAwYIAAAAAAAACBQAAAGgIACAAADAaAmCIyBoAABgCIAqBSAAACCAAkJQAIiAEGisgNJjaHNxqCeWOk4BELuYfI6PyOICADIAAIQABAQAZAABCAAAAAAAAAAA==

> <PUBCHEM_IUPAC_OPENEYE_NAME>
6-chloro-2-(4-hydroxy-3-methoxy-phenyl)-8-methyl-chromen-4-one

> <PUBCHEM_IUPAC_CAS_NAME>
6-chloro-2-(4-hydroxy-3-methoxyphenyl)-8-methyl-1-benzopyran-4-one

> <PUBCHEM_IUPAC_NAME>
6-chloro-2-(4-hydroxy-3-methoxyphenyl)-8-methylchromen-4-one

> <PUBCHEM_IUPAC_SYSTEMATIC_NAME>
6-chloranyl-2-(3-methoxy-4-oxidanyl-phenyl)-8-methyl-chromen-4-one

> <PUBCHEM_IUPAC_TRADITIONAL_NAME>
6-chloro-2-(4-hydroxy-3-methoxy-phenyl)-8-methyl-chromone

> <PUBCHEM_IUPAC_INCHI>
InChI=1S/C17H13ClO4/c1-9-5-11(18)7-12-14(20)8-15(22-17(9)12)10-3-4-13(19)16(6-10)21-2/h3-8,19H,1-2H3

> <PUBCHEM_IUPAC_INCHIKEY>
VSSBVVMPFCZCEQ-UHFFFAOYSA-N

> <PUBCHEM_XLOGP3_AA>
3.8

> <PUBCHEM_EXACT_MASS>
316.05

> <PUBCHEM_MOLECULAR_FORMULA>
C17H13ClO4

> <PUBCHEM_MOLECULAR_WEIGHT>
316.737

> <PUBCHEM_OPENEYE_CAN_SMILES>
CC1=C2C(=CC(=C1)Cl)C(=O)C=C(O2)C3=CC(=C(C=C3)O)OC

> <PUBCHEM_OPENEYE_ISO_SMILES>
CC1=C2C(=CC(=C1)Cl)C(=O)C=C(O2)C3=CC(=C(C=C3)O)OC

> <PUBCHEM_CACTVS_TPSA>
55.8

> <PUBCHEM_MONOISOTOPIC_WEIGHT>
316.05

> <PUBCHEM_TOTAL_CHARGE>
0

> <PUBCHEM_HEAVY_ATOM_COUNT>
22

> <PUBCHEM_ATOM_DEF_STEREO_COUNT>
0

> <PUBCHEM_ATOM_UDEF_STEREO_COUNT>
0

> <PUBCHEM_BOND_DEF_STEREO_COUNT>
0

> <PUBCHEM_BOND_UDEF_STEREO_COUNT>
0

> <PUBCHEM_ISOTOPIC_ATOM_COUNT>
0

> <PUBCHEM_COMPONENT_COUNT>
1

> <PUBCHEM_CACTVS_TAUTO_COUNT>
6

> <PUBCHEM_COORDINATE_TYPE>
1
5
255

> <PUBCHEM_BONDANNOTATIONS>
10  16  8
10  18  8
11  12  8
13  15  8
14  15  8
16  19  8
18  20  8
19  21  8
2  6  8
2  8  8
20  21  8
6  7  8
6  9  8
7  11  8
7  13  8
8  12  8
9  14  8

$$$$
52113929
  -OEChem-11021605012D

 32 34  0     0  0  0  0  0  0999 V2000
    8.6155   -1.2846    0.0000 Br  0  0  0  0  0  0  0  0  0  0  0  0
   10.3972    1.7742    0.0000 Br  0  0  0  0  0  0  0  0  0  0  0  0
    4.2690   -2.7500    0.0000 Cl  0  0  0  0  0  0  0  0  0  0  0  0
    6.8671   -0.2500    0.0000 O   0  0  0  0  0  0  0  0  0  0  0  0
    2.5369    0.2500    0.0000 O   0  0  0  0  0  0  0  0  0  0  0  0
    6.8671    2.7500    0.0000 O   0  0  0  0  0  0  0  0  0  0  0  0
    2.5369   -1.7500    0.0000 O   0  0  0  0  0  0  0  0  0  0  0  0
    6.0010    0.2500    0.0000 C   0  0  0  0  0  0  0  0  0  0  0  0
    5.1350   -0.2500    0.0000 C   0  0  0  0  0  0  0  0  0  0  0  0
    7.7331    1.2500    0.0000 C   0  0  0  0  0  0  0  0  0  0  0  0
    7.7331    0.2500    0.0000 C   0  0  0  0  0  0  0  0  0  0  0  0
    6.0010    1.2500    0.0000 C   0  0  0  0  0  0  0  0  0  0  0  0
    6.8671    1.7500    0.0000 C   0  0  0  0  0  0  0  0  0  0  0  0
    4.2690    0.2500    0.0000 C   0  0  0  0  0  0  0  0  0  0  0  0
    5.1350   -1.2500    0.0000 C   0  0  0  0  0  0  0  0  0  0  0  0
    8.6270    1.7847    0.0000 C   0  0  0  0  0  0  0  0  0  0  0  0
    8.6270   -0.2847    0.0000 C   0  0  0  0  0  0  0  0  0  0  0  0
    3.4030   -0.2500    0.0000 C   0  0  0  0  0  0  0  0  0  0  0  0
    3.4030   -1.2500    0.0000 C   0  0  0  0  0  0  0  0  0  0  0  0
    4.2690   -1.7500    0.0000 C   0  0  0  0  0  0  0  0  0  0  0  0
    9.5331    1.2708    0.0000 C   0  0  0  0  0  0  0  0  0  0  0  0
    9.5331    0.2292    0.0000 C   0  0  0  0  0  0  0  0  0  0  0  0
    2.5369    1.2500    0.0000 C   0  0  0  0  0  0  0  0  0  0  0  0
    5.4641    1.5600    0.0000 H   0  0  0  0  0  0  0  0  0  0  0  0
    4.2690    0.8700    0.0000 H   0  0  0  0  0  0  0  0  0  0  0  0
    5.6720   -1.5600    0.0000 H   0  0  0  0  0  0  0  0  0  0  0  0
    8.6199    2.4046    0.0000 H   0  0  0  0  0  0  0  0  0  0  0  0
   10.0688   -0.0829    0.0000 H   0  0  0  0  0  0  0  0  0  0  0  0
    2.0000   -1.4400    0.0000 H   0  0  0  0  0  0  0  0  0  0  0  0
    3.1569    1.2500    0.0000 H   0  0  0  0  0  0  0  0  0  0  0  0
    2.5369    1.8700    0.0000 H   0  0  0  0  0  0  0  0  0  0  0  0
    1.9169    1.2500    0.0000 H   0  0  0  0  0  0  0  0  0  0  0  0
  1 17  1  0  0  0  0
  2 21  1  0  0  0  0
  3 20  1  0  0  0  0
  4  8  1  0  0  0  0
  4 11  1  0  0  0  0
  5 18  1  0  0  0  0
  5 23  1  0  0  0  0
  6 13  2  0  0  0  0
  7 19  1  0  0  0  0
  7 29  1  0  0  0  0
  8  9  1  0  0  0  0
  8 12  2  0  0  0  0
  9 14  2  0  0  0  0
  9 15  1  0  0  0  0
 10 11  2  0  0  0  0
 10 13  1  0  0  0  0
 10 16  1  0  0  0  0
 11 17  1  0  0  0  0
 12 13  1  0  0  0  0
 12 24  1  0  0  0  0
 14 18  1  0  0  0  0
 14 25  1  0  0  0  0
 15 20  2  0  0  0  0
 15 26  1  0  0  0  0
 16 21  2  0  0  0  0
 16 27  1  0  0  0  0
 17 22  2  0  0  0  0
 18 19  2  0  0  0  0
 19 20  1  0  0  0  0
 21 22  1  0  0  0  0
 22 28  1  0  0  0  0
 23 30  1  0  0  0  0
 23 31  1  0  0  0  0
 23 32  1  0  0  0  0
M  END
> <PUBCHEM_COMPOUND_CID>
52113929

> <PUBCHEM_COMPOUND_CANONICALIZED>
1

> <PUBCHEM_CACTVS_COMPLEXITY>
501

> <PUBCHEM_CACTVS_HBOND_ACCEPTOR>
4

> <PUBCHEM_CACTVS_HBOND_DONOR>
1

> <PUBCHEM_CACTVS_ROTATABLE_BOND>
2

> <PUBCHEM_CACTVS_SUBSKEYS>
AAADccB4OAAEGAAAAAAAAAAAAAAAAAAAAAAwYIAAAAAAAACBQAAAGgJACAABrAaAmCIyBoAABgCIAqBSAAACCAAkJUQAiAEGi+gNJjaHNxqCeWOk4BELu5fI6LyOIBABMQAoTABAIAJiAFCYAAAAAAAAAA==

> <PUBCHEM_IUPAC_OPENEYE_NAME>
6,8-dibromo-2-(3-chloro-4-hydroxy-5-methoxy-phenyl)chromen-4-one

> <PUBCHEM_IUPAC_CAS_NAME>
6,8-dibromo-2-(3-chloro-4-hydroxy-5-methoxyphenyl)-1-benzopyran-4-one

> <PUBCHEM_IUPAC_NAME>
6,8-dibromo-2-(3-chloro-4-hydroxy-5-methoxyphenyl)chromen-4-one

> <PUBCHEM_IUPAC_SYSTEMATIC_NAME>
6,8-bis(bromanyl)-2-(3-chloranyl-5-methoxy-4-oxidanyl-phenyl)chromen-4-one

> <PUBCHEM_IUPAC_TRADITIONAL_NAME>
6,8-dibromo-2-(3-chloro-4-hydroxy-5-methoxy-phenyl)chromone

> <PUBCHEM_IUPAC_INCHI>
InChI=1S/C16H9Br2ClO4/c1-22-14-3-7(2-11(19)15(14)21)13-6-12(20)9-4-8(17)5-10(18)16(9)23-13/h2-6,21H,1H3

> <PUBCHEM_IUPAC_INCHIKEY>
OWFSTEVKOYKTSG-UHFFFAOYSA-N

> <PUBCHEM_XLOGP3_AA>
4.8

> <PUBCHEM_EXACT_MASS>
459.854

> <PUBCHEM_MOLECULAR_FORMULA>
C16H9Br2ClO4

> <PUBCHEM_MOLECULAR_WEIGHT>
460.502

> <PUBCHEM_OPENEYE_CAN_SMILES>
COC1=C(C(=CC(=C1)C2=CC(=O)C3=CC(=CC(=C3O2)Br)Br)Cl)O

> <PUBCHEM_OPENEYE_ISO_SMILES>
COC1=C(C(=CC(=C1)C2=CC(=O)C3=CC(=CC(=C3O2)Br)Br)Cl)O

> <PUBCHEM_CACTVS_TPSA>
55.8

> <PUBCHEM_MONOISOTOPIC_WEIGHT>
457.856

> <PUBCHEM_TOTAL_CHARGE>
0

> <PUBCHEM_HEAVY_ATOM_COUNT>
23

> <PUBCHEM_ATOM_DEF_STEREO_COUNT>
0

> <PUBCHEM_ATOM_UDEF_STEREO_COUNT>
0

> <PUBCHEM_BOND_DEF_STEREO_COUNT>
0

> <PUBCHEM_BOND_UDEF_STEREO_COUNT>
0

> <PUBCHEM_ISOTOPIC_ATOM_COUNT>
0

> <PUBCHEM_COMPONENT_COUNT>
1

> <PUBCHEM_CACTVS_TAUTO_COUNT>
6

> <PUBCHEM_COORDINATE_TYPE>
1
5
255

> <PUBCHEM_BONDANNOTATIONS>
10  11  8
10  13  8
10  16  8
11  17  8
12  13  8
14  18  8
15  20  8
16  21  8
17  22  8
18  19  8
19  20  8
21  22  8
4  11  8
4  8  8
8  12  8
9  14  8
9  15  8

$$$$
28811766
  -OEChem-11021605012D

 32 34  0     0  0  0  0  0  0999 V2000
    8.0785   -1.4746    0.0000 Cl  0  0  0  0  0  0  0  0  0  0  0  0
    9.8602    1.5842    0.0000 Cl  0  0  0  0  0  0  0  0  0  0  0  0
    6.3301   -0.4400    0.0000 O   0  0  0  0  0  0  0  0  0  0  0  0
    2.0000    0.0600    0.0000 O   0  0  0  0  0  0  0  0  0  0  0  0
    6.3301    2.5600    0.0000 O   0  0  0  0  0  0  0  0  0  0  0  0
    2.0000   -1.9400    0.0000 O   0  0  0  0  0  0  0  0  0  0  0  0
    5.4641    0.0600    0.0000 C   0  0  0  0  0  0  0  0  0  0  0  0
    7.1962    1.0600    0.0000 C   0  0  0  0  0  0  0  0  0  0  0  0
    4.5981   -0.4400    0.0000 C   0  0  0  0  0  0  0  0  0  0  0  0
    7.1962    0.0600    0.0000 C   0  0  0  0  0  0  0  0  0  0  0  0
    5.4641    1.0600    0.0000 C   0  0  0  0  0  0  0  0  0  0  0  0
    6.3301    1.5600    0.0000 C   0  0  0  0  0  0  0  0  0  0  0  0
    3.7320    0.0600    0.0000 C   0  0  0  0  0  0  0  0  0  0  0  0
    8.0901    1.5947    0.0000 C   0  0  0  0  0  0  0  0  0  0  0  0
    4.5981   -1.4400    0.0000 C   0  0  0  0  0  0  0  0  0  0  0  0
    8.0901   -0.4747    0.0000 C   0  0  0  0  0  0  0  0  0  0  0  0
    2.8660   -0.4400    0.0000 C   0  0  0  0  0  0  0  0  0  0  0  0
    3.7320   -1.9400    0.0000 C   0  0  0  0  0  0  0  0  0  0  0  0
    2.8660   -1.4400    0.0000 C   0  0  0  0  0  0  0  0  0  0  0  0
    8.9962    1.0808    0.0000 C   0  0  0  0  0  0  0  0  0  0  0  0
    8.9962    0.0392    0.0000 C   0  0  0  0  0  0  0  0  0  0  0  0
    2.0000    1.0600    0.0000 C   0  0  0  0  0  0  0  0  0  0  0  0
    4.9272    1.3700    0.0000 H   0  0  0  0  0  0  0  0  0  0  0  0
    3.7320    0.6800    0.0000 H   0  0  0  0  0  0  0  0  0  0  0  0
    8.0829    2.2146    0.0000 H   0  0  0  0  0  0  0  0  0  0  0  0
    5.1350   -1.7500    0.0000 H   0  0  0  0  0  0  0  0  0  0  0  0
    3.7320   -2.5600    0.0000 H   0  0  0  0  0  0  0  0  0  0  0  0
    9.5319   -0.2729    0.0000 H   0  0  0  0  0  0  0  0  0  0  0  0
    2.0000   -2.5600    0.0000 H   0  0  0  0  0  0  0  0  0  0  0  0
    2.6200    1.0600    0.0000 H   0  0  0  0  0  0  0  0  0  0  0  0
    2.0000    1.6800    0.0000 H   0  0  0  0  0  0  0  0  0  0  0  0
    1.3800    1.0600    0.0000 H   0  0  0  0  0  0  0  0  0  0  0  0
  1 16  1  0  0  0  0
  2 20  1  0  0  0  0
  3  7  1  0  0  0  0
  3 10  1  0  0  0  0
  4 17  1  0  0  0  0
  4 22  1  0  0  0  0
  5 12  2  0  0  0  0
  6 19  1  0  0  0  0
  6 29  1  0  0  0  0
  7  9  1  0  0  0  0
  7 11  2  0  0  0  0
  8 10  2  0  0  0  0
  8 12  1  0  0  0  0
  8 14  1  0  0  0  0
  9 13  2  0  0  0  0
  9 15  1  0  0  0  0
 10 16  1  0  0  0  0
 11 12  1  0  0  0  0
 11 23  1  0  0  0  0
 13 17  1  0  0  0  0
 13 24  1  0  0  0  0
 14 20  2  0  0  0  0
 14 25  1  0  0  0  0
 15 18  2  0  0  0  0
 15 26  1  0  0  0  0
 16 21  2  0  0  0  0
 17 19  2  0  0  0  0
 18 19  1  0  0  0  0
 18 27  1  0  0  0  0
 20 21  1  0  0  0  0
 21 28  1  0  0  0  0
 22 30  1  0  0  0  0
 22 31  1  0  0  0  0
 22 32  1  0  0  0  0
M  END
> <PUBCHEM_COMPOUND_CID>
28811766

> <PUBCHEM_COMPOUND_CANONICALIZED>
1

> <PUBCHEM_CACTVS_COMPLEXITY>
467

> <PUBCHEM_CACTVS_HBOND_ACCEPTOR>
4

> <PUBCHEM_CACTVS_HBOND_DONOR>
1

> <PUBCHEM_CACTVS_ROTATABLE_BOND>
2

> <PUBCHEM_CACTVS_SUBSKEYS>
AAADccB4OAAGAAAAAAAAAAAAAAAAAAAAAAAwYIAAAAAAAACBQAAAGgIACAAADAaAmCIyBoAABgCIAqBSAAACCAAkJUAIiAEGi8gNJjeHNxqCeWOk4BELuYfI6LyOICABIACISABAQAJAARCQAAAAAAAAAA==

> <PUBCHEM_IUPAC_OPENEYE_NAME>
6,8-dichloro-2-(4-hydroxy-3-methoxy-phenyl)chromen-4-one

> <PUBCHEM_IUPAC_CAS_NAME>
6,8-dichloro-2-(4-hydroxy-3-methoxyphenyl)-1-benzopyran-4-one

> <PUBCHEM_IUPAC_NAME>
6,8-dichloro-2-(4-hydroxy-3-methoxyphenyl)chromen-4-one

> <PUBCHEM_IUPAC_SYSTEMATIC_NAME>
6,8-bis(chloranyl)-2-(3-methoxy-4-oxidanyl-phenyl)chromen-4-one

> <PUBCHEM_IUPAC_TRADITIONAL_NAME>
6,8-dichloro-2-(4-hydroxy-3-methoxy-phenyl)chromone

> <PUBCHEM_IUPAC_INCHI>
InChI=1S/C16H10Cl2O4/c1-21-15-4-8(2-3-12(15)19)14-7-13(20)10-5-9(17)6-11(18)16(10)22-14/h2-7,19H,1H3

> <PUBCHEM_IUPAC_INCHIKEY>
QWAZSNUFPUOAQZ-UHFFFAOYSA-N

> <PUBCHEM_XLOGP3_AA>
4.1

> <PUBCHEM_EXACT_MASS>
335.996

> <PUBCHEM_MOLECULAR_FORMULA>
C16H10Cl2O4

> <PUBCHEM_MOLECULAR_WEIGHT>
337.152

> <PUBCHEM_OPENEYE_CAN_SMILES>
COC1=C(C=CC(=C1)C2=CC(=O)C3=CC(=CC(=C3O2)Cl)Cl)O

> <PUBCHEM_OPENEYE_ISO_SMILES>
COC1=C(C=CC(=C1)C2=CC(=O)C3=CC(=CC(=C3O2)Cl)Cl)O

> <PUBCHEM_CACTVS_TPSA>
55.8

> <PUBCHEM_MONOISOTOPIC_WEIGHT>
335.996

> <PUBCHEM_TOTAL_CHARGE>
0

> <PUBCHEM_HEAVY_ATOM_COUNT>
22

> <PUBCHEM_ATOM_DEF_STEREO_COUNT>
0

> <PUBCHEM_ATOM_UDEF_STEREO_COUNT>
0

> <PUBCHEM_BOND_DEF_STEREO_COUNT>
0

> <PUBCHEM_BOND_UDEF_STEREO_COUNT>
0

> <PUBCHEM_ISOTOPIC_ATOM_COUNT>
0

> <PUBCHEM_COMPONENT_COUNT>
1

> <PUBCHEM_CACTVS_TAUTO_COUNT>
6

> <PUBCHEM_COORDINATE_TYPE>
1
5
255

> <PUBCHEM_BONDANNOTATIONS>
10  16  8
11  12  8
13  17  8
14  20  8
15  18  8
16  21  8
17  19  8
18  19  8
20  21  8
3  10  8
3  7  8
7  11  8
8  10  8
8  12  8
8  14  8
9  13  8
9  15  8

$$$$
24823665
  -OEChem-11021605012D

 41 44  0     0  0  0  0  0  0999 V2000
    8.4993    3.8962    0.0000 O   0  0  0  0  0  0  0  0  0  0  0  0
    7.2566    0.0941    0.0000 N   0  0  0  0  0  0  0  0  0  0  0  0
    5.9674   -1.0626    0.0000 N   0  0  0  0  0  0  0  0  0  0  0  0
    5.6103    0.6322    0.0000 N   0  0  0  0  0  0  0  0  0  0  0  0
    4.6783   -2.2193    0.0000 N   0  0  0  0  0  0  0  0  0  0  0  0
    5.2619   -3.0241    0.0000 N   0  0  0  0  0  0  0  0  0  0  0  0
    4.6783   -3.8288    0.0000 N   0  0  0  0  0  0  0  0  0  0  0  0
    7.5673    1.0447    0.0000 C   0  0  0  0  0  0  0  0  0  0  0  0
    8.5458    1.2509    0.0000 C   0  0  0  0  0  0  0  0  0  0  0  0
    6.8994    1.7890    0.0000 C   0  0  0  0  0  0  0  0  0  0  0  0
    8.1886    2.9457    0.0000 C   0  0  0  0  0  0  0  0  0  0  0  0
    8.8564    2.2014    0.0000 C   0  0  0  0  0  0  0  0  0  0  0  0
    7.2101    2.7395    0.0000 C   0  0  0  0  0  0  0  0  0  0  0  0
    6.2781   -0.1121    0.0000 C   0  0  0  0  0  0  0  0  0  0  0  0
    4.9889   -1.2688    0.0000 C   0  0  0  0  0  0  0  0  0  0  0  0
    3.7320   -2.5241    0.0000 C   0  0  0  0  0  0  0  0  0  0  0  0
    4.3211   -0.5245    0.0000 C   0  0  0  0  0  0  0  0  0  0  0  0
    4.6318    0.4260    0.0000 C   0  0  0  0  0  0  0  0  0  0  0  0
    3.7320   -3.5241    0.0000 C   0  0  0  0  0  0  0  0  0  0  0  0
    2.8660   -2.0241    0.0000 C   0  0  0  0  0  0  0  0  0  0  0  0
    2.8660   -4.0241    0.0000 C   0  0  0  0  0  0  0  0  0  0  0  0
    2.0000   -2.5241    0.0000 C   0  0  0  0  0  0  0  0  0  0  0  0
    2.0000   -3.5241    0.0000 C   0  0  0  0  0  0  0  0  0  0  0  0
    6.9606    0.9168    0.0000 H   0  0  0  0  0  0  0  0  0  0  0  0
    8.5663    0.6312    0.0000 H   0  0  0  0  0  0  0  0  0  0  0  0
    9.1596    1.1635    0.0000 H   0  0  0  0  0  0  0  0  0  0  0  0
    6.3525    2.0810    0.0000 H   0  0  0  0  0  0  0  0  0  0  0  0
    6.5169    1.3010    0.0000 H   0  0  0  0  0  0  0  0  0  0  0  0
    7.7745    3.4072    0.0000 H   0  0  0  0  0  0  0  0  0  0  0  0
    9.4034    1.9094    0.0000 H   0  0  0  0  0  0  0  0  0  0  0  0
    9.2390    2.6893    0.0000 H   0  0  0  0  0  0  0  0  0  0  0  0
    7.1895    3.3591    0.0000 H   0  0  0  0  0  0  0  0  0  0  0  0
    6.5963    2.8268    0.0000 H   0  0  0  0  0  0  0  0  0  0  0  0
    7.6707   -0.3673    0.0000 H   0  0  0  0  0  0  0  0  0  0  0  0
    9.1059    4.0241    0.0000 H   0  0  0  0  0  0  0  0  0  0  0  0
    3.7144   -0.6524    0.0000 H   0  0  0  0  0  0  0  0  0  0  0  0
    4.2177    0.8875    0.0000 H   0  0  0  0  0  0  0  0  0  0  0  0
    2.8660   -1.4041    0.0000 H   0  0  0  0  0  0  0  0  0  0  0  0
    2.8660   -4.6441    0.0000 H   0  0  0  0  0  0  0  0  0  0  0  0
    1.4631   -2.2141    0.0000 H   0  0  0  0  0  0  0  0  0  0  0  0
    1.4631   -3.8341    0.0000 H   0  0  0  0  0  0  0  0  0  0  0  0
  1 11  1  0  0  0  0
  1 35  1  0  0  0  0
  2  8  1  0  0  0  0
  2 14  1  0  0  0  0
  2 34  1  0  0  0  0
  3 14  1  0  0  0  0
  3 15  2  0  0  0  0
  4 14  2  0  0  0  0
  4 18  1  0  0  0  0
  5  6  1  0  0  0  0
  5 15  1  0  0  0  0
  5 16  1  0  0  0  0
  6  7  2  0  0  0  0
  7 19  1  0  0  0  0
  8  9  1  0  0  0  0
  8 10  1  0  0  0  0
  8 24  1  0  0  0  0
  9 12  1  0  0  0  0
  9 25  1  0  0  0  0
  9 26  1  0  0  0  0
 10 13  1  0  0  0  0
 10 27  1  0  0  0  0
 10 28  1  0  0  0  0
 11 12  1  0  0  0  0
 11 13  1  0  0  0  0
 11 29  1  0  0  0  0
 12 30  1  0  0  0  0
 12 31  1  0  0  0  0
 13 32  1  0  0  0  0
 13 33  1  0  0  0  0
 15 17  1  0  0  0  0
 16 19  1  0  0  0  0
 16 20  2  0  0  0  0
 17 18  2  0  0  0  0
 17 36  1  0  0  0  0
 18 37  1  0  0  0  0
 19 21  2  0  0  0  0
 20 22  1  0  0  0  0
 20 38  1  0  0  0  0
 21 23  1  0  0  0  0
 21 39  1  0  0  0  0
 22 23  2  0  0  0  0
 22 40  1  0  0  0  0
 23 41  1  0  0  0  0
M  END
> <PUBCHEM_COMPOUND_CID>
24823665

> <PUBCHEM_COMPOUND_CANONICALIZED>
1

> <PUBCHEM_CACTVS_COMPLEXITY>
389

> <PUBCHEM_CACTVS_HBOND_ACCEPTOR>
6

> <PUBCHEM_CACTVS_HBOND_DONOR>
2

> <PUBCHEM_CACTVS_ROTATABLE_BOND>
3

> <PUBCHEM_CACTVS_SUBSKEYS>
AAADceB7oAAAAAAAAAAAAAAAAAAAAWAAAAA8YIAAAAAAAFgB/AAAHgAYCAAACDzhlgY98LbIEgCiATZnZACChC0xEqAd2KA4dJiIeOLA2dGUZAhskALIyCewQAAAAAAAAAAAACAAgAAAAAAAQAAAAAAAAA==

> <PUBCHEM_IUPAC_OPENEYE_NAME>
4-[[4-(benzotriazol-1-yl)pyrimidin-2-yl]amino]cyclohexanol

> <PUBCHEM_IUPAC_CAS_NAME>
4-[[4-(1-benzotriazolyl)-2-pyrimidinyl]amino]-1-cyclohexanol

> <PUBCHEM_IUPAC_NAME>
4-[[4-(benzotriazol-1-yl)pyrimidin-2-yl]amino]cyclohexan-1-ol

> <PUBCHEM_IUPAC_SYSTEMATIC_NAME>
4-[[4-(benzotriazol-1-yl)pyrimidin-2-yl]amino]cyclohexan-1-ol

> <PUBCHEM_IUPAC_TRADITIONAL_NAME>
4-[[4-(benzotriazol-1-yl)pyrimidin-2-yl]amino]cyclohexanol

> <PUBCHEM_IUPAC_INCHI>
InChI=1S/C16H18N6O/c23-12-7-5-11(6-8-12)18-16-17-10-9-15(19-16)22-14-4-2-1-3-13(14)20-21-22/h1-4,9-12,23H,5-8H2,(H,17,18,19)

> <PUBCHEM_IUPAC_INCHIKEY>
KFIDJSXUJCJHQB-UHFFFAOYSA-N

> <PUBCHEM_XLOGP3_AA>
2.4

> <PUBCHEM_EXACT_MASS>
310.154

> <PUBCHEM_MOLECULAR_FORMULA>
C16H18N6O

> <PUBCHEM_MOLECULAR_WEIGHT>
310.361

> <PUBCHEM_OPENEYE_CAN_SMILES>
C1CC(CCC1NC2=NC=CC(=N2)N3C4=CC=CC=C4N=N3)O

> <PUBCHEM_OPENEYE_ISO_SMILES>
C1CC(CCC1NC2=NC=CC(=N2)N3C4=CC=CC=C4N=N3)O

> <PUBCHEM_CACTVS_TPSA>
88.8

> <PUBCHEM_MONOISOTOPIC_WEIGHT>
310.154

> <PUBCHEM_TOTAL_CHARGE>
0

> <PUBCHEM_HEAVY_ATOM_COUNT>
23

> <PUBCHEM_ATOM_DEF_STEREO_COUNT>
0

> <PUBCHEM_ATOM_UDEF_STEREO_COUNT>
0

> <PUBCHEM_BOND_DEF_STEREO_COUNT>
0

> <PUBCHEM_BOND_UDEF_STEREO_COUNT>
0

> <PUBCHEM_ISOTOPIC_ATOM_COUNT>
0

> <PUBCHEM_COMPONENT_COUNT>
1

> <PUBCHEM_CACTVS_TAUTO_COUNT>
3

> <PUBCHEM_COORDINATE_TYPE>
1
5
255

> <PUBCHEM_BONDANNOTATIONS>
15  17  8
16  19  8
16  20  8
17  18  8
19  21  8
20  22  8
21  23  8
22  23  8
3  14  8
3  15  8
4  14  8
4  18  8
5  16  8
5  6  8
6  7  8
7  19  8

$$$$
24957308
  -OEChem-11021605012D

 43 46  0     0  0  0  0  0  0999 V2000
    5.2066    4.2675    0.0000 O   0  0  0  0  0  0  0  0  0  0  0  0
    3.9639    0.4654    0.0000 N   0  0  0  0  0  0  0  0  0  0  0  0
    4.3211   -1.2294    0.0000 N   0  0  0  0  0  0  0  0  0  0  0  0
    4.6783   -2.9242    0.0000 N   0  0  0  0  0  0  0  0  0  0  0  0
    5.6103   -0.0727    0.0000 N   0  0  0  0  0  0  0  0  0  0  0  0
    4.2746    1.4159    0.0000 C   0  0  0  0  0  0  0  0  0  0  0  0
    5.2531    1.6222    0.0000 C   0  0  0  0  0  0  0  0  0  0  0  0
    3.6067    2.1602    0.0000 C   0  0  0  0  0  0  0  0  0  0  0  0
    4.8959    3.3170    0.0000 C   0  0  0  0  0  0  0  0  0  0  0  0
    5.5637    2.5727    0.0000 C   0  0  0  0  0  0  0  0  0  0  0  0
    3.9174    3.1108    0.0000 C   0  0  0  0  0  0  0  0  0  0  0  0
    4.6318   -0.2789    0.0000 C   0  0  0  0  0  0  0  0  0  0  0  0
    4.9889   -1.9737    0.0000 C   0  0  0  0  0  0  0  0  0  0  0  0
    3.7320   -3.2290    0.0000 C   0  0  0  0  0  0  0  0  0  0  0  0
    3.7320   -4.2290    0.0000 C   0  0  0  0  0  0  0  0  0  0  0  0
    5.9674   -1.7675    0.0000 C   0  0  0  0  0  0  0  0  0  0  0  0
    5.2619   -3.7290    0.0000 C   0  0  0  0  0  0  0  0  0  0  0  0
    6.2781   -0.8170    0.0000 C   0  0  0  0  0  0  0  0  0  0  0  0
    4.6783   -4.5337    0.0000 C   0  0  0  0  0  0  0  0  0  0  0  0
    2.8660   -2.7290    0.0000 C   0  0  0  0  0  0  0  0  0  0  0  0
    2.8660   -4.7290    0.0000 C   0  0  0  0  0  0  0  0  0  0  0  0
    2.0000   -3.2290    0.0000 C   0  0  0  0  0  0  0  0  0  0  0  0
    2.0000   -4.2290    0.0000 C   0  0  0  0  0  0  0  0  0  0  0  0
    4.6886    0.9545    0.0000 H   0  0  0  0  0  0  0  0  0  0  0  0
    5.2736    1.0025    0.0000 H   0  0  0  0  0  0  0  0  0  0  0  0
    5.8669    1.5348    0.0000 H   0  0  0  0  0  0  0  0  0  0  0  0
    3.0598    2.4523    0.0000 H   0  0  0  0  0  0  0  0  0  0  0  0
    3.2242    1.6723    0.0000 H   0  0  0  0  0  0  0  0  0  0  0  0
    5.5026    3.4448    0.0000 H   0  0  0  0  0  0  0  0  0  0  0  0
    6.1107    2.2806    0.0000 H   0  0  0  0  0  0  0  0  0  0  0  0
    5.9463    3.0606    0.0000 H   0  0  0  0  0  0  0  0  0  0  0  0
    3.8968    3.7304    0.0000 H   0  0  0  0  0  0  0  0  0  0  0  0
    3.3036    3.1981    0.0000 H   0  0  0  0  0  0  0  0  0  0  0  0
    3.3572    0.3376    0.0000 H   0  0  0  0  0  0  0  0  0  0  0  0
    4.7925    4.7290    0.0000 H   0  0  0  0  0  0  0  0  0  0  0  0
    5.8819   -3.7290    0.0000 H   0  0  0  0  0  0  0  0  0  0  0  0
    6.3815   -2.2290    0.0000 H   0  0  0  0  0  0  0  0  0  0  0  0
    6.8848   -0.6891    0.0000 H   0  0  0  0  0  0  0  0  0  0  0  0
    4.8709   -5.1230    0.0000 H   0  0  0  0  0  0  0  0  0  0  0  0
    2.8660   -2.1090    0.0000 H   0  0  0  0  0  0  0  0  0  0  0  0
    2.8660   -5.3490    0.0000 H   0  0  0  0  0  0  0  0  0  0  0  0
    1.4631   -2.9190    0.0000 H   0  0  0  0  0  0  0  0  0  0  0  0
    1.4631   -4.5390    0.0000 H   0  0  0  0  0  0  0  0  0  0  0  0
  1  9  1  0  0  0  0
  1 35  1  0  0  0  0
  2  6  1  0  0  0  0
  2 12  1  0  0  0  0
  2 34  1  0  0  0  0
  3 12  1  0  0  0  0
  3 13  2  0  0  0  0
  4 13  1  0  0  0  0
  4 14  1  0  0  0  0
  4 17  1  0  0  0  0
  5 12  2  0  0  0  0
  5 18  1  0  0  0  0
  6  7  1  0  0  0  0
  6  8  1  0  0  0  0
  6 24  1  0  0  0  0
  7 10  1  0  0  0  0
  7 25  1  0  0  0  0
  7 26  1  0  0  0  0
  8 11  1  0  0  0  0
  8 27  1  0  0  0  0
  8 28  1  0  0  0  0
  9 10  1  0  0  0  0
  9 11  1  0  0  0  0
  9 29  1  0  0  0  0
 10 30  1  0  0  0  0
 10 31  1  0  0  0  0
 11 32  1  0  0  0  0
 11 33  1  0  0  0  0
 13 16  1  0  0  0  0
 14 15  1  0  0  0  0
 14 20  2  0  0  0  0
 15 19  1  0  0  0  0
 15 21  2  0  0  0  0
 16 18  2  0  0  0  0
 16 37  1  0  0  0  0
 17 19  2  0  0  0  0
 17 36  1  0  0  0  0
 18 38  1  0  0  0  0
 19 39  1  0  0  0  0
 20 22  1  0  0  0  0
 20 40  1  0  0  0  0
 21 23  1  0  0  0  0
 21 41  1  0  0  0  0
 22 23  2  0  0  0  0
 22 42  1  0  0  0  0
 23 43  1  0  0  0  0
M  END
> <PUBCHEM_COMPOUND_CID>
24957308

> <PUBCHEM_COMPOUND_CANONICALIZED>
1

> <PUBCHEM_CACTVS_COMPLEXITY>
385

> <PUBCHEM_CACTVS_HBOND_ACCEPTOR>
4

> <PUBCHEM_CACTVS_HBOND_DONOR>
2

> <PUBCHEM_CACTVS_ROTATABLE_BOND>
3

> <PUBCHEM_CACTVS_SUBSKEYS>
AAADceB7oAAAAAAAAAAAAAAAAAAAAWAAAAA8YIAAAAAAAFgB/AAAHgAQCAAADDzhngY98PfMEgCgAzZnZACCgCkxAqAJ2KA4ZJiIOOLA2dGEZAhskALIyCewwIAOAAAAAAACAAAAgAAAAAQAAAAAAAAAAA==

> <PUBCHEM_IUPAC_OPENEYE_NAME>
4-[(4-indol-1-ylpyrimidin-2-yl)amino]cyclohexanol

> <PUBCHEM_IUPAC_CAS_NAME>
4-[[4-(1-indolyl)-2-pyrimidinyl]amino]-1-cyclohexanol

> <PUBCHEM_IUPAC_NAME>
4-[(4-indol-1-ylpyrimidin-2-yl)amino]cyclohexan-1-ol

> <PUBCHEM_IUPAC_SYSTEMATIC_NAME>
4-[(4-indol-1-ylpyrimidin-2-yl)amino]cyclohexan-1-ol

> <PUBCHEM_IUPAC_TRADITIONAL_NAME>
4-[(4-indol-1-ylpyrimidin-2-yl)amino]cyclohexanol

> <PUBCHEM_IUPAC_INCHI>
InChI=1S/C18H20N4O/c23-15-7-5-14(6-8-15)20-18-19-11-9-17(21-18)22-12-10-13-3-1-2-4-16(13)22/h1-4,9-12,14-15,23H,5-8H2,(H,19,20,21)

> <PUBCHEM_IUPAC_INCHIKEY>
DXTHSIZXMXMTFL-UHFFFAOYSA-N

> <PUBCHEM_XLOGP3_AA>
3.2

> <PUBCHEM_EXACT_MASS>
308.164

> <PUBCHEM_MOLECULAR_FORMULA>
C18H20N4O

> <PUBCHEM_MOLECULAR_WEIGHT>
308.385

> <PUBCHEM_OPENEYE_CAN_SMILES>
C1CC(CCC1NC2=NC=CC(=N2)N3C=CC4=CC=CC=C43)O

> <PUBCHEM_OPENEYE_ISO_SMILES>
C1CC(CCC1NC2=NC=CC(=N2)N3C=CC4=CC=CC=C43)O

> <PUBCHEM_CACTVS_TPSA>
63

> <PUBCHEM_MONOISOTOPIC_WEIGHT>
308.164

> <PUBCHEM_TOTAL_CHARGE>
0

> <PUBCHEM_HEAVY_ATOM_COUNT>
23

> <PUBCHEM_ATOM_DEF_STEREO_COUNT>
0

> <PUBCHEM_ATOM_UDEF_STEREO_COUNT>
0

> <PUBCHEM_BOND_DEF_STEREO_COUNT>
0

> <PUBCHEM_BOND_UDEF_STEREO_COUNT>
0

> <PUBCHEM_ISOTOPIC_ATOM_COUNT>
0

> <PUBCHEM_COMPONENT_COUNT>
1

> <PUBCHEM_CACTVS_TAUTO_COUNT>
3

> <PUBCHEM_COORDINATE_TYPE>
1
5
255

> <PUBCHEM_BONDANNOTATIONS>
13  16  8
14  15  8
14  20  8
15  19  8
15  21  8
16  18  8
17  19  8
20  22  8
21  23  8
22  23  8
3  12  8
3  13  8
4  14  8
4  17  8
5  12  8
5  18  8

$$$$
24957306
  -OEChem-11021605012D

 42 45  0     0  0  0  0  0  0999 V2000
    8.4993    3.8962    0.0000 O   0  0  0  0  0  0  0  0  0  0  0  0
    7.2566    0.0941    0.0000 N   0  0  0  0  0  0  0  0  0  0  0  0
    5.9674   -1.0626    0.0000 N   0  0  0  0  0  0  0  0  0  0  0  0
    5.6103    0.6322    0.0000 N   0  0  0  0  0  0  0  0  0  0  0  0
    4.6783   -2.2193    0.0000 N   0  0  0  0  0  0  0  0  0  0  0  0
    5.2619   -3.0241    0.0000 N   0  0  0  0  0  0  0  0  0  0  0  0
    7.5673    1.0447    0.0000 C   0  0  0  0  0  0  0  0  0  0  0  0
    8.5458    1.2509    0.0000 C   0  0  0  0  0  0  0  0  0  0  0  0
    6.8994    1.7890    0.0000 C   0  0  0  0  0  0  0  0  0  0  0  0
    8.1886    2.9457    0.0000 C   0  0  0  0  0  0  0  0  0  0  0  0
    8.8564    2.2014    0.0000 C   0  0  0  0  0  0  0  0  0  0  0  0
    7.2101    2.7395    0.0000 C   0  0  0  0  0  0  0  0  0  0  0  0
    6.2781   -0.1121    0.0000 C   0  0  0  0  0  0  0  0  0  0  0  0
    4.9889   -1.2688    0.0000 C   0  0  0  0  0  0  0  0  0  0  0  0
    3.7320   -2.5241    0.0000 C   0  0  0  0  0  0  0  0  0  0  0  0
    4.3211   -0.5245    0.0000 C   0  0  0  0  0  0  0  0  0  0  0  0
    4.6318    0.4260    0.0000 C   0  0  0  0  0  0  0  0  0  0  0  0
    3.7320   -3.5241    0.0000 C   0  0  0  0  0  0  0  0  0  0  0  0
    4.6783   -3.8288    0.0000 C   0  0  0  0  0  0  0  0  0  0  0  0
    2.8660   -2.0241    0.0000 C   0  0  0  0  0  0  0  0  0  0  0  0
    2.8660   -4.0241    0.0000 C   0  0  0  0  0  0  0  0  0  0  0  0
    2.0000   -2.5241    0.0000 C   0  0  0  0  0  0  0  0  0  0  0  0
    2.0000   -3.5241    0.0000 C   0  0  0  0  0  0  0  0  0  0  0  0
    6.9606    0.9168    0.0000 H   0  0  0  0  0  0  0  0  0  0  0  0
    8.5663    0.6312    0.0000 H   0  0  0  0  0  0  0  0  0  0  0  0
    9.1596    1.1635    0.0000 H   0  0  0  0  0  0  0  0  0  0  0  0
    6.3525    2.0810    0.0000 H   0  0  0  0  0  0  0  0  0  0  0  0
    6.5169    1.3010    0.0000 H   0  0  0  0  0  0  0  0  0  0  0  0
    7.7745    3.4072    0.0000 H   0  0  0  0  0  0  0  0  0  0  0  0
    9.4034    1.9094    0.0000 H   0  0  0  0  0  0  0  0  0  0  0  0
    9.2390    2.6893    0.0000 H   0  0  0  0  0  0  0  0  0  0  0  0
    7.1895    3.3591    0.0000 H   0  0  0  0  0  0  0  0  0  0  0  0
    6.5963    2.8268    0.0000 H   0  0  0  0  0  0  0  0  0  0  0  0
    7.6707   -0.3673    0.0000 H   0  0  0  0  0  0  0  0  0  0  0  0
    9.1059    4.0241    0.0000 H   0  0  0  0  0  0  0  0  0  0  0  0
    3.7144   -0.6524    0.0000 H   0  0  0  0  0  0  0  0  0  0  0  0
    4.2177    0.8875    0.0000 H   0  0  0  0  0  0  0  0  0  0  0  0
    4.8709   -4.4181    0.0000 H   0  0  0  0  0  0  0  0  0  0  0  0
    2.8660   -1.4041    0.0000 H   0  0  0  0  0  0  0  0  0  0  0  0
    2.8660   -4.6441    0.0000 H   0  0  0  0  0  0  0  0  0  0  0  0
    1.4631   -2.2141    0.0000 H   0  0  0  0  0  0  0  0  0  0  0  0
    1.4631   -3.8341    0.0000 H   0  0  0  0  0  0  0  0  0  0  0  0
  1 10  1  0  0  0  0
  1 35  1  0  0  0  0
  2  7  1  0  0  0  0
  2 13  1  0  0  0  0
  2 34  1  0  0  0  0
  3 13  1  0  0  0  0
  3 14  2  0  0  0  0
  4 13  2  0  0  0  0
  4 17  1  0  0  0  0
  5  6  1  0  0  0  0
  5 14  1  0  0  0  0
  5 15  1  0  0  0  0
  6 19  2  0  0  0  0
  7  8  1  0  0  0  0
  7  9  1  0  0  0  0
  7 24  1  0  0  0  0
  8 11  1  0  0  0  0
  8 25  1  0  0  0  0
  8 26  1  0  0  0  0
  9 12  1  0  0  0  0
  9 27  1  0  0  0  0
  9 28  1  0  0  0  0
 10 11  1  0  0  0  0
 10 12  1  0  0  0  0
 10 29  1  0  0  0  0
 11 30  1  0  0  0  0
 11 31  1  0  0  0  0
 12 32  1  0  0  0  0
 12 33  1  0  0  0  0
 14 16  1  0  0  0  0
 15 18  1  0  0  0  0
 15 20  2  0  0  0  0
 16 17  2  0  0  0  0
 16 36  1  0  0  0  0
 17 37  1  0  0  0  0
 18 19  1  0  0  0  0
 18 21  2  0  0  0  0
 19 38  1  0  0  0  0
 20 22  1  0  0  0  0
 20 39  1  0  0  0  0
 21 23  1  0  0  0  0
 21 40  1  0  0  0  0
 22 23  2  0  0  0  0
 22 41  1  0  0  0  0
 23 42  1  0  0  0  0
M  END
> <PUBCHEM_COMPOUND_CID>
24957306

> <PUBCHEM_COMPOUND_CANONICALIZED>
1

> <PUBCHEM_CACTVS_COMPLEXITY>
387

> <PUBCHEM_CACTVS_HBOND_ACCEPTOR>
5

> <PUBCHEM_CACTVS_HBOND_DONOR>
2

> <PUBCHEM_CACTVS_ROTATABLE_BOND>
3

> <PUBCHEM_CACTVS_SUBSKEYS>
AAADceB7oAAAAAAAAAAAAAAAAAAAAWAAAAA8YIAAAAAAAFgB/AAAHgAYCAAADDzhngY98PbIEgCiAzZnZACShCkxgqAd2KA4ZJiIOOLA2dGE5AhsmALIyCewwAAOAAAAAAACAAAAgAAAAAQAAAAAAAAAAA==

> <PUBCHEM_IUPAC_OPENEYE_NAME>
4-[(4-indazol-1-ylpyrimidin-2-yl)amino]cyclohexanol

> <PUBCHEM_IUPAC_CAS_NAME>
4-[[4-(1-indazolyl)-2-pyrimidinyl]amino]-1-cyclohexanol

> <PUBCHEM_IUPAC_NAME>
4-[(4-indazol-1-ylpyrimidin-2-yl)amino]cyclohexan-1-ol

> <PUBCHEM_IUPAC_SYSTEMATIC_NAME>
4-[(4-indazol-1-ylpyrimidin-2-yl)amino]cyclohexan-1-ol

> <PUBCHEM_IUPAC_TRADITIONAL_NAME>
4-[(4-indazol-1-ylpyrimidin-2-yl)amino]cyclohexanol

> <PUBCHEM_IUPAC_INCHI>
InChI=1S/C17H19N5O/c23-14-7-5-13(6-8-14)20-17-18-10-9-16(21-17)22-15-4-2-1-3-12(15)11-19-22/h1-4,9-11,13-14,23H,5-8H2,(H,18,20,21)

> <PUBCHEM_IUPAC_INCHIKEY>
DPTBYUQHDCZBPL-UHFFFAOYSA-N

> <PUBCHEM_XLOGP3_AA>
2.8

> <PUBCHEM_EXACT_MASS>
309.159

> <PUBCHEM_MOLECULAR_FORMULA>
C17H19N5O

> <PUBCHEM_MOLECULAR_WEIGHT>
309.373

> <PUBCHEM_OPENEYE_CAN_SMILES>
C1CC(CCC1NC2=NC=CC(=N2)N3C4=CC=CC=C4C=N3)O

> <PUBCHEM_OPENEYE_ISO_SMILES>
C1CC(CCC1NC2=NC=CC(=N2)N3C4=CC=CC=C4C=N3)O

> <PUBCHEM_CACTVS_TPSA>
75.9

> <PUBCHEM_MONOISOTOPIC_WEIGHT>
309.159

> <PUBCHEM_TOTAL_CHARGE>
0

> <PUBCHEM_HEAVY_ATOM_COUNT>
23

> <PUBCHEM_ATOM_DEF_STEREO_COUNT>
0

> <PUBCHEM_ATOM_UDEF_STEREO_COUNT>
0

> <PUBCHEM_BOND_DEF_STEREO_COUNT>
0

> <PUBCHEM_BOND_UDEF_STEREO_COUNT>
0

> <PUBCHEM_ISOTOPIC_ATOM_COUNT>
0

> <PUBCHEM_COMPONENT_COUNT>
1

> <PUBCHEM_CACTVS_TAUTO_COUNT>
3

> <PUBCHEM_COORDINATE_TYPE>
1
5
255

> <PUBCHEM_BONDANNOTATIONS>
14  16  8
15  18  8
15  20  8
16  17  8
18  19  8
18  21  8
20  22  8
21  23  8
22  23  8
3  13  8
3  14  8
4  13  8
4  17  8
5  15  8
5  6  8
6  19  8

$$$$
