
  CDK    9/16/09,9:20

 72 78  0  0  0  0  0  0  0  0999 V2000
    0.1574  -14.7947    0.0000 C   0  0  0  0  0  0  0  0  0  0  0  0
    0.1574  -15.6230    0.0000 C   0  0  0  0  0  0  0  0  0  0  0  0
    0.8687  -16.0328    0.0000 C   0  0  0  0  0  0  0  0  0  0  0  0
    0.8687  -14.3764    0.0000 C   0  0  0  0  0  0  0  0  0  0  0  0
    1.5842  -14.7947    0.0000 C   0  0  0  0  0  0  0  0  0  0  0  0
    1.5788  -15.6230    0.0000 C   0  0  0  0  0  0  0  0  0  0  0  0
    2.2894  -16.0361    0.0000 C   0  0  0  0  0  0  0  0  0  0  0  0
    3.0080  -15.6280    0.0000 C   0  0  0  0  0  0  0  0  0  0  0  0
    2.2959  -14.3839    0.0000 C   0  0  0  0  0  0  0  0  0  0  0  0
    3.0091  -14.8071    0.0000 C   0  0  0  0  0  0  0  0  0  0  0  0
    3.0266  -13.1469    0.0000 C   0  0  0  0  0  0  0  0  0  0  0  0
    2.3040  -13.5529    0.0000 C   0  0  0  0  0  0  0  0  0  0  0  0
    3.7441  -13.5701    0.0000 C   0  0  0  0  0  0  0  0  0  0  0  0
    3.7321  -14.4006    0.0000 C   0  0  0  0  0  0  0  0  0  0  0  0
    4.5118  -14.6692    0.0000 C   0  0  0  0  0  0  0  0  0  0  0  0
    5.0097  -14.0063    0.0000 C   0  0  0  0  0  0  0  0  0  0  0  0
    4.5363  -13.3279    0.0000 C   0  0  0  0  0  0  0  0  0  0  0  0
   -0.5608  -16.0366    0.0000 O   0  0  0  0  0  0  0  0  0  0  0  0
    0.4490  -16.7448    0.0000 C   0  0  0  0  0  0  0  0  0  0  0  0
    1.2772  -16.7448    0.0000 C   0  0  0  0  0  0  0  0  0  0  0  0
    1.5772  -13.9707    0.0000 C   0  0  0  0  0  0  0  0  0  0  0  0
    3.0013  -13.9792    0.0000 C   0  0  0  0  0  0  0  0  0  0  0  0
    4.8040  -12.5464    0.0000 C   0  0  0  0  0  0  0  0  0  0  0  0
    3.7238  -15.2278    0.0000 C   0  0  0  0  0  0  0  0  0  0  0  0
   -1.2768  -15.6261    0.0000 C   0  0  0  0  0  0  0  0  0  0  0  0
   -1.2780  -14.7998    0.0000 O   0  0  0  0  0  0  0  0  0  0  0  0
   -1.9918  -14.3854    0.0000 C   0  0  0  0  0  0  0  0  0  0  0  0
   -2.7097  -14.7978    0.0000 C   0  0  0  0  0  0  0  0  0  0  0  0
   -2.7108  -15.6234    0.0000 C   0  0  0  0  0  0  0  0  0  0  0  0
   -1.9942  -16.0406    0.0000 C   0  0  0  0  0  0  0  0  0  0  0  0
   -1.9938  -16.8687    0.0000 O   0  0  0  0  0  0  0  0  0  0  0  0
   -1.9931  -13.5614    0.0000 C   0  0  0  0  0  0  0  0  0  0  0  0
   -0.5660  -15.2071    0.0000 H   0  0  0  0  0  0  0  0  0  0  0  0
    5.3604  -13.3260    0.0000 H   0  0  0  0  0  0  0  0  0  0  0  0
    1.5731  -16.4431    0.0000 H   0  0  0  0  0  0  0  0  0  0  0  0
    2.2890  -15.2071    0.0000 H   0  0  0  0  0  0  0  0  0  0  0  0
    3.7373  -12.7433    0.0000 H   0  0  0  0  0  0  0  0  0  0  0  0
    5.0149  -11.7444    0.0000 O   0  0  0  0  0  0  0  0  0  0  0  0
    5.5928  -12.7848    0.0000 C   0  0  0  0  0  0  0  0  0  0  0  0
    5.7807  -13.5872    0.0000 C   0  0  0  0  0  0  0  0  0  0  0  0
    4.0143  -12.3112    0.0000 C   0  0  0  0  0  0  0  0  0  0  0  0
    6.5694  -13.8257    0.0000 C   0  0  0  0  0  0  0  0  0  0  0  0
    6.7573  -14.6279    0.0000 C   0  0  0  0  0  0  0  0  0  0  0  0
    7.5461  -14.8665    0.0000 C   0  0  0  0  0  0  0  0  0  0  0  0
    6.1563  -15.1919    0.0000 C   0  0  0  0  0  0  0  0  0  0  0  0
    5.8098  -11.5275    0.0000 C   0  0  0  0  0  0  0  0  0  0  0  0
    6.3917  -12.1068    0.0000 C   0  0  0  0  0  0  0  0  0  0  0  0
    7.1837  -11.8927    0.0000 C   0  0  0  0  0  0  0  0  0  0  0  0
    7.3975  -11.0965    0.0000 C   0  0  0  0  0  0  0  0  0  0  0  0
    6.8128  -10.5145    0.0000 C   0  0  0  0  0  0  0  0  0  0  0  0
    6.0144  -10.7286    0.0000 O   0  0  0  0  0  0  0  0  0  0  0  0
    6.1802  -12.9033    0.0000 O   0  0  0  0  0  0  0  0  0  0  0  0
    7.7668  -12.4749    0.0000 O   0  0  0  0  0  0  0  0  0  0  0  0
    8.1932  -10.8826    0.0000 O   0  0  0  0  0  0  0  0  0  0  0  0
    7.0251   -9.7182    0.0000 C   0  0  0  0  0  0  0  0  0  0  0  0
    7.8208   -9.5040    0.0000 O   0  0  0  0  0  0  0  0  0  0  0  0
    8.0330   -8.7078    0.0000 C   0  0  0  0  0  0  0  0  0  0  0  0
    8.8334   -8.4953    0.0000 C   0  0  0  0  0  0  0  0  0  0  0  0
    9.0466   -7.7031    0.0000 C   0  0  0  0  0  0  0  0  0  0  0  0
    8.4660   -7.1179    0.0000 C   0  0  0  0  0  0  0  0  0  0  0  0
    7.6688   -7.3304    0.0000 C   0  0  0  0  0  0  0  0  0  0  0  0
    7.4524   -8.1283    0.0000 O   0  0  0  0  0  0  0  0  0  0  0  0
    9.4150   -9.0790    0.0000 O   0  0  0  0  0  0  0  0  0  0  0  0
    9.8431   -7.4919    0.0000 O   0  0  0  0  0  0  0  0  0  0  0  0
    8.6814   -6.3224    0.0000 O   0  0  0  0  0  0  0  0  0  0  0  0
    7.0874   -6.7465    0.0000 C   0  0  0  0  0  0  0  0  0  0  0  0
    7.3025   -5.9511    0.0000 O   0  0  0  0  0  0  0  0  0  0  0  0
    5.2230  -10.9371    0.0000 H   0  0  0  0  0  0  0  0  0  0  0  0
    3.0378  -12.3230    0.0000 O   0  0  0  0  0  0  0  0  0  0  0  0
   -3.4271  -16.0374    0.0000 O   0  0  0  0  0  0  0  0  0  0  0  0
   -3.4274  -14.3833    0.0000 O   0  0  0  0  0  0  0  0  0  0  0  0
   -1.2725  -13.1477    0.0000 O   0  0  0  0  0  0  0  0  0  0  0  0
 25 33  1  6  0  0  0 
  1  2  1  0  0  0  0 
 17 34  1  6  0  0  0 
  1  4  1  0  0  0  0 
  6 35  1  6  0  0  0 
  2  3  1  0  0  0  0 
  9 36  1  6  0  0  0 
  3  6  1  0  0  0  0 
 13 37  1  1  0  0  0 
  5  4  1  0  0  0  0 
 23 38  1  1  0  0  0 
  5  6  1  0  0  0  0 
 23 39  1  0  0  0  0 
  5  9  1  0  0  0  0 
 39 40  1  0  0  0  0 
  6  7  1  0  0  0  0 
 23 41  1  0  0  0  0 
  7  8  1  0  0  0  0 
 40 42  1  0  0  0  0 
  8 10  1  0  0  0  0 
 42 43  2  0  0  0  0 
  9 10  1  0  0  0  0 
 43 44  1  0  0  0  0 
  9 12  1  0  0  0  0 
 43 45  1  0  0  0  0 
 10 14  1  0  0  0  0 
 38 46  1  0  0  0  0 
 46 47  1  0  0  0  0 
 13 11  1  0  0  0  0 
 11 12  1  0  0  0  0 
 13 14  1  0  0  0  0 
 14 15  1  0  0  0  0 
 15 16  1  0  0  0  0 
 46 51  1  0  0  0  0 
 47 48  1  0  0  0  0 
 48 49  1  0  0  0  0 
 49 50  1  0  0  0  0 
 50 51  1  0  0  0  0 
 16 17  1  0  0  0  0 
 47 52  1  1  0  0  0 
 17 13  1  0  0  0  0 
 48 53  1  6  0  0  0 
  2 18  1  1  0  0  0 
 49 54  1  1  0  0  0 
  3 19  1  0  0  0  0 
 50 55  1  6  0  0  0 
  3 20  1  0  0  0  0 
 55 56  1  0  0  0  0 
  5 21  1  1  0  0  0 
 57 56  1  6  0  0  0 
 57 58  1  0  0  0  0 
 10 22  1  1  0  0  0 
 17 23  1  0  0  0  0 
 14 24  1  6  0  0  0 
 25 18  1  0  0  0  0 
 57 62  1  0  0  0  0 
 58 59  1  0  0  0  0 
 59 60  1  0  0  0  0 
 60 61  1  0  0  0  0 
 61 62  1  0  0  0  0 
 25 26  1  0  0  0  0 
 58 63  1  1  0  0  0 
 25 30  1  0  0  0  0 
 59 64  1  6  0  0  0 
 26 27  1  0  0  0  0 
 60 65  1  1  0  0  0 
 27 28  1  0  0  0  0 
 61 66  1  6  0  0  0 
 28 29  1  0  0  0  0 
 66 67  1  0  0  0  0 
 29 30  1  0  0  0  0 
 46 68  1  1  0  0  0 
 30 31  1  6  0  0  0 
 27 32  1  1  0  0  0 
 29 70  1  1  0  0  0 
 11 69  1  1  0  0  0 
 28 71  1  6  0  0  0 
 32 72  1  0  0  0  0 
M  END
>  <MOLREGNO>
505580

>  <CHEMBLID>
CHEMBL504441

>  <SYNONYMS>
Gynosaponin S | Gypenoside XVII

>  <MAX_PHASE>
0

>  <MOLWEIGHT>
947.15

>  <ALOGP>
.55

>  <PSA>
298.14

>  <HBA>
18

>  <HBD>
12

>  <RO5>
3

>  <RTB>
13

>  <RO3>
N

>  <ACD_MOST_APKA>
12.9

>  <ACD_MOST_BPKA>


>  <ACD_LOGP>
1.8

>  <ACD_LOGD>
1.8

>  <AROMATIC_RINGS>
0

>  <HEAVY_ATOMS>
66

>  <QED_WEIGHTED>
.09

>  <HBA_LIPINSKI>
18

>  <HBD_LIPINSKI>
12

>  <NUM_LIPINSKI_RO5_VIOLATIONS>
2

>  <MW_MONOISOTOPIC>
946.5501

>  <MOLECULAR_SPECIES>
NEUTRAL

>  <FULL_MOLFORMULA>
C48H82O18

$$$$

  SciTegic01161211222D

 33 36  0  0  0  0            999 V2000
   -0.1046    5.0616    0.0000 C   0  0
    0.6099    5.4741    0.0000 C   0  0
   -0.1046    4.2366    0.0000 C   0  0
    0.6099    3.8241    0.0000 C   0  0
    1.3244    4.2366    0.0000 C   0  0
    1.3244    5.0616    0.0000 C   0  0
    0.6099    2.9991    0.0000 O   0  0
    2.0389    5.4742    0.0000 O   0  0
    2.7534    5.0617    0.0000 C   0  0
    2.7534    4.2367    0.0000 C   0  0
    2.0389    3.8242    0.0000 C   0  0
    3.4679    5.4742    0.0000 C   0  0
    4.1823    5.0617    0.0000 C   0  0
    4.8968    5.4742    0.0000 C   0  0
    4.8968    6.2992    0.0000 C   0  0
    4.1823    6.7117    0.0000 C   0  0
    3.4678    6.2992    0.0000 C   0  0
    2.0389    2.9992    0.0000 O   0  0
   -0.8190    5.4741    0.0000 O   0  0
    4.1823    7.5367    0.0000 O   0  0
    5.6113    6.7117    0.0000 O   0  0
    3.8074    1.5770    0.0000 C   0  0  2  0  0  0
    3.0929    1.9895    0.0000 O   0  0
    2.3785    1.5770    0.0000 C   0  0  1  0  0  0
    2.3784    0.7520    0.0000 C   0  0  1  0  0  0
    3.0929    0.3395    0.0000 C   0  0  1  0  0  0
    3.8074    0.7520    0.0000 C   0  0  1  0  0  0
    1.6640    1.9895    0.0000 C   0  0
    0.9495    1.5770    0.0000 O   0  0
    1.6640    0.3395    0.0000 O   0  0
    3.0929   -0.4855    0.0000 O   0  0
    4.5219    0.3395    0.0000 O   0  0
    4.3285    3.4007    0.0000 O   0  0
  2  1  2  0
  1  3  1  0
  2  6  1  0
  3  4  2  0
  4  5  1  0
  4  7  1  0
 11  5  1  0
  5  6  2  0
  6  8  1  0
  8  9  1  0
  9 10  2  0
 10 11  1  0
  9 12  1  0
 12 13  2  0
 12 17  1  0
 13 14  1  0
 14 15  2  0
 15 16  1  0
 16 17  2  0
 11 18  2  0
  1 19  1  0
 16 20  1  0
 15 21  1  0
 22 23  1  0
 27 22  1  0
 23 24  1  0
 24 25  1  0
 25 26  1  0
 26 27  1  0
 24 28  1  1
 28 29  1  0
 25 30  1  1
 26 31  1  1
 27 32  1  6
 22 33  1  1
 10 33  1  0
M  END
>  <MOLREGNO>
421345

>  <CHEMBLID>
CHEMBL251254

>  <SYNONYMS>
Hyperoside

>  <MAX_PHASE>
0

>  <MOLWEIGHT>
464.38

>  <ALOGP>
-.3

>  <PSA>
206.59

>  <HBA>
12

>  <HBD>
8

>  <RO5>
2

>  <RTB>
4

>  <RO3>
N

>  <ACD_MOST_APKA>
6.17

>  <ACD_MOST_BPKA>


>  <ACD_LOGP>
-.11

>  <ACD_LOGD>
-1.65

>  <AROMATIC_RINGS>
2

>  <HEAVY_ATOMS>
33

>  <QED_WEIGHTED>
.28

>  <HBA_LIPINSKI>
12

>  <HBD_LIPINSKI>
8

>  <NUM_LIPINSKI_RO5_VIOLATIONS>
2

>  <MW_MONOISOTOPIC>
464.0955

>  <MOLECULAR_SPECIES>
ACID

>  <FULL_MOLFORMULA>
C21H20O12

$$$$

  SciTegic01161211222D

 38 45  0  0  0  0            999 V2000
   -1.8101   -0.3167    0.0000 C   0  0
   -1.8112   -1.1442    0.0000 C   0  0
   -1.0981    0.0961    0.0000 C   0  0
   -1.1006    0.9213    0.0000 O   0  0
   -2.5261   -1.5562    0.0000 O   0  0
   -0.3826   -0.3131    0.0000 C   0  0
    0.3333    0.1088    0.0000 C   0  0
    1.0572   -0.3072    0.0000 C   0  0
    2.5008   -1.1326    0.0000 C   0  0
    2.4939   -0.2966    0.0000 C   0  0
    1.7718    0.1118    0.0000 C   0  0
    0.3288    0.9340    0.0000 O   0  0
    1.7653    0.9370    0.0000 O   0  0
   -0.3792   -1.1463    0.0000 C   0  0
   -1.0976   -1.5582    0.0000 C   0  0
    0.3368   -1.5579    0.0000 C   0  0
    1.7711   -1.5715    0.0000 C   0  0
    1.0556   -1.1473    0.0000 C   0  0
    0.3289   -2.3879    0.0000 C   0  0
    0.3307   -4.0274    0.0000 C   0  0
    1.0409   -2.7925    0.0000 C   0  0
    1.0393   -3.6113    0.0000 C   0  0
    1.7465   -4.0204    0.0000 C   0  0
    2.4558   -3.6116    0.0000 C   0  0
    2.4534   -2.7897    0.0000 C   0  0
    1.7456   -2.3843    0.0000 C   0  0
   -0.3797   -3.6166    0.0000 C   0  0
   -0.3810   -2.8013    0.0000 C   0  0
   -1.0866   -2.3965    0.0000 C   0  0
   -1.7914   -2.8060    0.0000 C   0  0
   -1.7861   -3.6244    0.0000 C   0  0
   -1.0800   -4.0255    0.0000 C   0  0
   -2.5078   -2.3967    0.0000 O   0  0
    1.7459   -4.8455    0.0000 O   0  0
    0.3334   -4.8524    0.0000 O   0  0
   -1.0750   -4.8505    0.0000 O   0  0
    3.1667   -2.3748    0.0000 C   0  0
    3.2208   -1.5358    0.0000 C   0  0
  3  1  1  0
 16 18  1  0
 26 17  1  0
 17 18  1  0
 19 28  1  0
  8 18  2  0
  1  2  2  0
 19 21  1  0
 27 20  1  0
 20 22  1  0
 17  9  2  0
  3  4  1  0
 21 22  2  0
  9 10  1  0
 22 23  1  0
  2 15  1  0
 23 24  2  0
 10 11  2  0
 24 25  1  0
 11  8  1  0
 25 26  2  0
 26 21  1  0
  2  5  1  0
  7 12  2  0
 27 28  2  0
  6 14  1  0
 28 29  1  0
 11 13  1  0
 29 30  2  0
 14 15  2  0
 30 31  1  0
 31 32  2  0
 32 27  1  0
  6  3  2  0
 30 33  1  0
 14 16  1  0
 23 34  1  0
 15 29  1  0
 20 35  2  0
 16 19  2  0
 32 36  1  0
  6  7  1  0
 25 37  1  0
  8  7  1  0
  9 38  1  0
M  END
>  <MOLREGNO>
36295

>  <CHEMBLID>
CHEMBL286494

>  <SYNONYMS>
Hypericin

>  <MAX_PHASE>
0

>  <MOLWEIGHT>
504.44

>  <ALOGP>
5.04

>  <PSA>
155.52

>  <HBA>
8

>  <HBD>
6

>  <RO5>
3

>  <RTB>
0

>  <RO3>
N

>  <ACD_MOST_APKA>
6.91

>  <ACD_MOST_BPKA>


>  <ACD_LOGP>
10.83

>  <ACD_LOGD>
10.07

>  <AROMATIC_RINGS>
6

>  <HEAVY_ATOMS>
38

>  <QED_WEIGHTED>
.16

>  <HBA_LIPINSKI>
8

>  <HBD_LIPINSKI>
6

>  <NUM_LIPINSKI_RO5_VIOLATIONS>
2

>  <MW_MONOISOTOPIC>
504.0845

>  <MOLECULAR_SPECIES>
NEUTRAL

>  <FULL_MOLFORMULA>
C30H16O8

$$$$

  CDK    9/16/09,9:20

 44 47  0  0  0  0  0  0  0  0999 V2000
   15.8880   -6.4322    0.0000 O   0  0  0  0  0  0  0  0  0  0  0  0
   15.1657   -6.0311    0.0000 C   0  0  0  0  0  0  0  0  0  0  0  0
   14.4585   -6.4560    0.0000 C   0  0  0  0  0  0  0  0  0  0  0  0
   14.4737   -7.2821    0.0000 O   0  0  0  0  0  0  0  0  0  0  0  0
   13.7362   -6.0549    0.0000 C   0  0  0  0  0  0  0  0  0  0  0  0
   13.0291   -6.4799    0.0000 O   0  0  0  0  0  0  0  0  0  0  0  0
   13.7232   -5.2324    0.0000 C   0  0  0  0  0  0  0  0  0  0  0  0
   13.0009   -4.8313    0.0000 O   0  0  0  0  0  0  0  0  0  0  0  0
   14.4303   -4.8075    0.0000 C   0  0  0  0  0  0  0  0  0  0  0  0
   15.1505   -5.2050    0.0000 O   0  0  0  0  0  0  0  0  0  0  0  0
   14.4151   -3.9814    0.0000 C   0  0  0  0  0  0  0  0  0  0  0  0
   17.3286   -9.7281    0.0000 O   0  0  0  0  0  0  0  0  0  0  0  0
   11.6152   -8.9208    0.0000 C   0  0  0  0  0  0  0  0  0  0  0  0
   11.6141   -9.7482    0.0000 C   0  0  0  0  0  0  0  0  0  0  0  0
   12.3289  -10.1610    0.0000 C   0  0  0  0  0  0  0  0  0  0  0  0
   13.0453   -9.7477    0.0000 C   0  0  0  0  0  0  0  0  0  0  0  0
   13.0425   -8.9172    0.0000 C   0  0  0  0  0  0  0  0  0  0  0  0
   12.3271   -8.5080    0.0000 C   0  0  0  0  0  0  0  0  0  0  0  0
   10.8993  -10.1601    0.0000 O   0  0  0  0  0  0  0  0  0  0  0  0
   10.9007   -8.5085    0.0000 O   0  0  0  0  0  0  0  0  0  0  0  0
   13.7554   -8.5020    0.0000 C   0  0  0  0  0  0  0  0  0  0  0  0
   14.4714   -8.9118    0.0000 C   0  0  0  0  0  0  0  0  0  0  0  0
   15.1843   -8.4966    0.0000 C   0  0  0  0  0  0  0  0  0  0  0  0
   15.9018   -8.9028    0.0000 O   0  0  0  0  0  0  0  0  0  0  0  0
   15.1812   -7.6716    0.0000 O   0  0  0  0  0  0  0  0  0  0  0  0
   16.6152   -8.4885    0.0000 C   0  0  0  0  0  0  0  0  0  0  0  0
   17.3265   -8.9035    0.0000 C   0  0  0  0  0  0  0  0  0  0  0  0
   18.0379   -8.4928    0.0000 C   0  0  0  0  0  0  0  0  0  0  0  0
   18.0401   -7.6674    0.0000 C   0  0  0  0  0  0  0  0  0  0  0  0
   17.3248   -7.2545    0.0000 O   0  0  0  0  0  0  0  0  0  0  0  0
   16.6072   -7.6669    0.0000 C   0  0  0  0  0  0  0  0  0  0  0  0
   15.8912   -7.2572    0.0000 C   0  0  0  0  0  0  0  0  0  0  0  0
   18.7518   -8.9063    0.0000 O   0  0  0  0  0  0  0  0  0  0  0  0
   18.7552   -7.2559    0.0000 O   0  0  0  0  0  0  0  0  0  0  0  0
   19.4691   -7.6694    0.0000 C   0  0  0  0  0  0  0  0  0  0  0  0
   20.1841   -7.2578    0.0000 C   0  0  0  0  0  0  0  0  0  0  0  0
   20.8980   -7.6713    0.0000 C   0  0  0  0  0  0  0  0  0  0  0  0
   20.8919   -8.4969    0.0000 C   0  0  0  0  0  0  0  0  0  0  0  0
   21.6050   -8.9103    0.0000 C   0  0  0  0  0  0  0  0  0  0  0  0
   22.3210   -8.4987    0.0000 C   0  0  0  0  0  0  0  0  0  0  0  0
   22.3195   -7.6694    0.0000 C   0  0  0  0  0  0  0  0  0  0  0  0
   21.6058   -7.2598    0.0000 C   0  0  0  0  0  0  0  0  0  0  0  0
   23.0331   -7.2553    0.0000 O   0  0  0  0  0  0  0  0  0  0  0  0
   23.0355   -8.9112    0.0000 O   0  0  0  0  0  0  0  0  0  0  0  0
  2 10  1  0  0  0  0 
 22 23  1  0  0  0  0 
 23 24  1  0  0  0  0 
  2  1  1  1  0  0  0 
 23 25  2  0  0  0  0 
  2  3  1  0  0  0  0 
 26 24  1  6  0  0  0 
 26 27  1  0  0  0  0 
 13 14  2  0  0  0  0 
  3  4  1  6  0  0  0 
 14 15  1  0  0  0  0 
  3  5  1  0  0  0  0 
 15 16  2  0  0  0  0 
 26 31  1  0  0  0  0 
 27 28  1  0  0  0  0 
 28 29  1  0  0  0  0 
 29 30  1  0  0  0  0 
 30 31  1  0  0  0  0 
  5  6  1  6  0  0  0 
 31 32  1  1  0  0  0 
 32  1  1  0  0  0  0 
 27 12  1  1  0  0  0 
 16 17  1  0  0  0  0 
 28 33  1  6  0  0  0 
  5  7  1  0  0  0  0 
 29 34  1  1  0  0  0 
 17 18  2  0  0  0  0 
 34 35  1  0  0  0  0 
 18 13  1  0  0  0  0 
 35 36  1  0  0  0  0 
  7  8  1  1  0  0  0 
 36 37  1  0  0  0  0 
 14 19  1  0  0  0  0 
 37 38  2  0  0  0  0 
  7  9  1  0  0  0  0 
 38 39  1  0  0  0  0 
 13 20  1  0  0  0  0 
 39 40  2  0  0  0  0 
  9 10  1  0  0  0  0 
 40 41  1  0  0  0  0 
 17 21  1  0  0  0  0 
 41 42  2  0  0  0  0 
 42 37  1  0  0  0  0 
  9 11  1  6  0  0  0 
 41 43  1  0  0  0  0 
 21 22  2  0  0  0  0 
 40 44  1  0  0  0  0 
M  END
>  <MOLREGNO>
503401

>  <CHEMBLID>
CHEMBL504363

>  <SYNONYMS>
Forsythiaside

>  <MAX_PHASE>
0

>  <MOLWEIGHT>
624.59

>  <ALOGP>
.48

>  <PSA>
245.28

>  <HBA>
15

>  <HBD>
9

>  <RO5>
3

>  <RTB>
11

>  <RO3>
N

>  <ACD_MOST_APKA>
9.31

>  <ACD_MOST_BPKA>


>  <ACD_LOGP>
.43

>  <ACD_LOGD>
.42

>  <AROMATIC_RINGS>
2

>  <HEAVY_ATOMS>
44

>  <QED_WEIGHTED>
.09

>  <HBA_LIPINSKI>
15

>  <HBD_LIPINSKI>
9

>  <NUM_LIPINSKI_RO5_VIOLATIONS>
2

>  <MW_MONOISOTOPIC>
624.2054

>  <MOLECULAR_SPECIES>
NEUTRAL

>  <FULL_MOLFORMULA>
C29H36O15

$$$$

  SciTegic10041313232D

 55 59  0  0  1  0            999 V2000
   -3.5090   -0.4312    0.0000 C   0  0
   -3.5102   -1.2585    0.0000 C   0  0
   -2.7947   -1.6694    0.0000 C   0  0
   -2.0777   -1.2581    0.0000 C   0  0
   -2.0806   -0.4276    0.0000 C   0  0
   -2.7965   -0.0163    0.0000 C   0  0
   -4.2200   -0.0167    0.0000 O   0  0
   -4.2214   -1.6685    0.0000 O   0  0
   -1.3619   -1.6674    0.0000 C   0  0
   -0.6475   -1.2559    0.0000 C   0  0
    0.0683   -1.6652    0.0000 C   0  0
    0.7826   -1.2537    0.0000 O   0  0
    0.0696   -2.4903    0.0000 O   0  0
    1.4984   -1.6629    0.0000 C   0  0  1  0  0  0
    1.4959   -2.4885    0.0000 C   0  0  1  0  0  0
    2.2033   -2.9020    0.0000 C   0  0  2  0  0  0
    2.9203   -2.4897    0.0000 C   0  0  1  0  0  0
    2.9209   -1.6637    0.0000 O   0  0
    2.2047   -1.2499    0.0000 C   0  0  2  0  0  0
    2.2016   -3.7270    0.0000 O   0  0
    2.2036   -0.4249    0.0000 C   0  0
    3.6344   -2.9060    0.0000 O   0  0
    0.7800   -2.9018    0.0000 O   0  0
    2.9182   -0.0093    0.0000 O   0  0
    4.3504   -2.4929    0.0000 C   0  0
    5.0646   -2.9090    0.0000 C   0  0
    5.7806   -2.4960    0.0000 C   0  0
    6.4937   -2.9159    0.0000 C   0  0
    7.2093   -2.5036    0.0000 C   0  0
    7.2115   -1.6777    0.0000 C   0  0
    6.4923   -1.2657    0.0000 C   0  0
    5.7798   -1.6763    0.0000 C   0  0
    6.4912   -0.4407    0.0000 O   0  0
    7.9228   -1.2678    0.0000 O   0  0
    0.7784   -3.7269    0.0000 C   0  0  2  0  0  0
    0.0626   -4.1298    0.0000 C   0  0  2  0  0  0
    0.0590   -4.9512    0.0000 C   0  0  2  0  0  0
    0.7715   -5.3710    0.0000 C   0  0  1  0  0  0
    1.4892   -4.9591    0.0000 C   0  0  2  0  0  0
    1.4944   -4.1314    0.0000 O   0  0
   -0.6499   -3.7147    0.0000 O   0  0
   -0.6584   -5.3617    0.0000 O   0  0
    0.7668   -6.1961    0.0000 O   0  0
    2.1979   -5.3775    0.0000 C   0  0
    0.0622   -3.3127    0.0000 H   0  0
    2.9155    0.8117    0.0000 C   0  0  2  0  0  0
    3.5794    1.2929    0.0000 C   0  0  2  0  0  0
    3.3232    2.0728    0.0000 C   0  0
    2.5023    2.0702    0.0000 C   0  0
    2.2512    1.2886    0.0000 O   0  0
    4.3604    1.0400    0.0000 O   0  0
    4.1419    2.0730    0.0000 O   0  0
    3.0698    2.8536    0.0000 C   0  0
    3.6194    3.4635    0.0000 O   0  0
    2.1187    0.6012    0.0000 H   0  0
 26 27  1  0
  1  2  2  0
 27 28  2  0
 14 12  1  6
 28 29  1  0
 14 15  1  0
 29 30  2  0
  1  7  1  0
 30 31  1  0
  3  4  2  0
 31 32  2  0
 32 27  1  0
  2  8  1  0
 31 33  1  0
 30 34  1  0
  4  9  1  0
 35 23  1  0
 35 36  1  0
 14 19  1  0
 15 16  1  0
 16 17  1  0
 17 18  1  0
 18 19  1  0
 35 40  1  0
 36 37  1  0
 37 38  1  0
 38 39  1  0
 39 40  1  0
  4  5  1  0
 36 41  1  6
 16 20  1  6
 37 42  1  6
  9 10  2  0
 38 43  1  1
 19 21  1  1
 39 44  1  6
  2  3  1  0
 35 45  1  6
 17 22  1  1
 46 24  1  0
 46 47  1  0
 10 11  1  0
 15 23  1  1
  5  6  2  0
 21 24  1  0
 47 48  1  0
 48 49  1  0
 49 50  1  0
 50 46  1  0
 11 12  1  0
 47 51  1  6
 22 25  1  0
 48 52  1  0
  6  1  1  0
 48 53  1  0
 25 26  1  0
 53 54  1  0
 11 13  2  0
 46 55  1  6
M  END
>  <MOLREGNO>
393250

>  <CHEMBLID>
CHEMBL393292

>  <SYNONYMS>
FORSYTHOSIDE B

>  <MAX_PHASE>
0

>  <MOLWEIGHT>
756.7

>  <ALOGP>
-.93

>  <PSA>
304.2

>  <HBA>
19

>  <HBD>
11

>  <RO5>
3

>  <RTB>
14

>  <RO3>
N

>  <ACD_MOST_APKA>
9.31

>  <ACD_MOST_BPKA>


>  <ACD_LOGP>
-1.06

>  <ACD_LOGD>
-1.07

>  <AROMATIC_RINGS>
2

>  <HEAVY_ATOMS>
53

>  <QED_WEIGHTED>
.06

>  <HBA_LIPINSKI>
19

>  <HBD_LIPINSKI>
11

>  <NUM_LIPINSKI_RO5_VIOLATIONS>
2

>  <MW_MONOISOTOPIC>
756.2477

>  <MOLECULAR_SPECIES>
NEUTRAL

>  <FULL_MOLFORMULA>
C34H44O19

$$$$

  SciTegic01161211222D

 27 28  0  0  0  0            999 V2000
   -3.4181    0.7792    0.0000 C   0  0
   -3.4193   -0.0482    0.0000 C   0  0
   -2.7044   -0.4610    0.0000 C   0  0
   -1.9880   -0.0477    0.0000 C   0  0
   -1.9909    0.7828    0.0000 C   0  0
   -2.7062    1.1920    0.0000 C   0  0
   -4.1327    1.1915    0.0000 O   0  0
   -4.8470    0.7789    0.0000 C   0  0
   -4.1341   -0.4601    0.0000 O   0  0
   -1.2779    1.1980    0.0000 C   0  0
   -0.5619    0.7882    0.0000 C   0  0
    0.1510    1.2034    0.0000 C   0  0
    0.8670    0.7936    0.0000 C   0  0
    0.1479    2.0284    0.0000 O   0  0
    1.5799    1.2088    0.0000 C   0  0
    2.2959    0.7990    0.0000 C   0  0
    1.5768    2.0338    0.0000 O   0  0
    3.0089    1.2142    0.0000 C   0  0
    3.7249    0.8044    0.0000 C   0  0
    3.7253   -0.0178    0.0000 C   0  0
    4.4405   -0.4275    0.0000 C   0  0
    5.1544   -0.0122    0.0000 C   0  0
    5.1486    0.8170    0.0000 C   0  0
    4.4329    1.2230    0.0000 C   0  0
    5.8601    1.2347    0.0000 O   0  0
    6.5775    0.8274    0.0000 C   0  0
    5.8710   -0.4211    0.0000 O   0  0
  1  2  2  0
 12 14  2  0
  1  7  1  0
 13 15  2  0
  3  4  2  0
 15 16  1  0
  7  8  1  0
 15 17  1  0
 16 18  2  0
  2  9  1  0
 18 19  1  0
  4  5  1  0
 19 20  2  0
  5 10  1  0
 20 21  1  0
  2  3  1  0
 21 22  2  0
 10 11  2  0
 22 23  1  0
  5  6  2  0
 23 24  2  0
 24 19  1  0
 11 12  1  0
 23 25  1  0
  6  1  1  0
 25 26  1  0
 12 13  1  0
 22 27  1  0
M  END
>  <MOLREGNO>
190171

>  <CHEMBLID>
CHEMBL116438

>  <SYNONYMS>
E100 | Curcumin | Natural Yellow 3 | CI-75300 | Diferuloylmethane

>  <MAX_PHASE>
0

>  <MOLWEIGHT>
368.38

>  <ALOGP>
3.57

>  <PSA>
96.22

>  <HBA>
6

>  <HBD>
3

>  <RO5>
0

>  <RTB>
7

>  <RO3>
N

>  <ACD_MOST_APKA>
8.35

>  <ACD_MOST_BPKA>


>  <ACD_LOGP>
2.64

>  <ACD_LOGD>
2.59

>  <AROMATIC_RINGS>
2

>  <HEAVY_ATOMS>
27

>  <QED_WEIGHTED>
.39

>  <HBA_LIPINSKI>
6

>  <HBD_LIPINSKI>
3

>  <NUM_LIPINSKI_RO5_VIOLATIONS>
0

>  <MW_MONOISOTOPIC>
368.126

>  <MOLECULAR_SPECIES>
NEUTRAL

>  <FULL_MOLFORMULA>
C21H20O6

$$$$

  CDK    9/16/09,9:19

 25 26  0  0  0  0  0  0  0  0999 V2000
   -1.7014   -1.4583    0.0000 C   0  0  0  0  0  0  0  0  0  0  0  0
   -1.7026   -2.2857    0.0000 C   0  0  0  0  0  0  0  0  0  0  0  0
   -0.9878   -2.6985    0.0000 C   0  0  0  0  0  0  0  0  0  0  0  0
   -0.2713   -2.2852    0.0000 C   0  0  0  0  0  0  0  0  0  0  0  0
   -0.2742   -1.4547    0.0000 C   0  0  0  0  0  0  0  0  0  0  0  0
   -0.9896   -1.0455    0.0000 C   0  0  0  0  0  0  0  0  0  0  0  0
   -2.4160   -1.0460    0.0000 O   0  0  0  0  0  0  0  0  0  0  0  0
    0.4438   -2.6966    0.0000 C   0  0  0  0  0  0  0  0  0  0  0  0
    1.1576   -2.2829    0.0000 C   0  0  0  0  0  0  0  0  0  0  0  0
    1.8727   -2.6943    0.0000 C   0  0  0  0  0  0  0  0  0  0  0  0
    2.5865   -2.2807    0.0000 C   0  0  0  0  0  0  0  0  0  0  0  0
    1.8740   -3.5193    0.0000 O   0  0  0  0  0  0  0  0  0  0  0  0
    3.3017   -2.6921    0.0000 C   0  0  0  0  0  0  0  0  0  0  0  0
    3.3030   -3.5171    0.0000 O   0  0  0  0  0  0  0  0  0  0  0  0
    4.0155   -2.2785    0.0000 C   0  0  0  0  0  0  0  0  0  0  0  0
    4.7306   -2.6898    0.0000 C   0  0  0  0  0  0  0  0  0  0  0  0
    5.4444   -2.2762    0.0000 C   0  0  0  0  0  0  0  0  0  0  0  0
    6.1587   -2.6887    0.0000 C   0  0  0  0  0  0  0  0  0  0  0  0
    6.8721   -2.2758    0.0000 C   0  0  0  0  0  0  0  0  0  0  0  0
    6.8712   -1.4499    0.0000 C   0  0  0  0  0  0  0  0  0  0  0  0
    6.1511   -1.0387    0.0000 C   0  0  0  0  0  0  0  0  0  0  0  0
    5.4407   -1.4540    0.0000 C   0  0  0  0  0  0  0  0  0  0  0  0
    7.5845   -1.0353    0.0000 O   0  0  0  0  0  0  0  0  0  0  0  0
    7.5870   -2.6875    0.0000 O   0  0  0  0  0  0  0  0  0  0  0  0
    7.5879   -3.5125    0.0000 C   0  0  0  0  0  0  0  0  0  0  0  0
  6  1  1  0  0  0  0 
 11 13  2  0  0  0  0 
  1  2  2  0  0  0  0 
 13 14  1  0  0  0  0 
  1  7  1  0  0  0  0 
 13 15  1  0  0  0  0 
  3  4  2  0  0  0  0 
 15 16  2  0  0  0  0 
  4  8  1  0  0  0  0 
 16 17  1  0  0  0  0 
 17 18  2  0  0  0  0 
  8  9  2  0  0  0  0 
 18 19  1  0  0  0  0 
  4  5  1  0  0  0  0 
 19 20  2  0  0  0  0 
  9 10  1  0  0  0  0 
 20 21  1  0  0  0  0 
  2  3  1  0  0  0  0 
 21 22  2  0  0  0  0 
 22 17  1  0  0  0  0 
 10 11  1  0  0  0  0 
 20 23  1  0  0  0  0 
  5  6  2  0  0  0  0 
 19 24  1  0  0  0  0 
 10 12  2  0  0  0  0 
 24 25  1  0  0  0  0 
M  END
>  <MOLREGNO>
303181

>  <CHEMBLID>
CHEMBL179512

>  <SYNONYMS>
Demethoxy Curcumin | Demethoxycurcumin | Curcumin Ii

>  <MAX_PHASE>
0

>  <MOLWEIGHT>
338.35

>  <ALOGP>
3.59

>  <PSA>
86.99

>  <HBA>
5

>  <HBD>
3

>  <RO5>
0

>  <RTB>
6

>  <RO3>
N

>  <ACD_MOST_APKA>
8.35

>  <ACD_MOST_BPKA>


>  <ACD_LOGP>
2.69

>  <ACD_LOGD>
2.63

>  <AROMATIC_RINGS>
2

>  <HEAVY_ATOMS>
25

>  <QED_WEIGHTED>
.43

>  <HBA_LIPINSKI>
5

>  <HBD_LIPINSKI>
3

>  <NUM_LIPINSKI_RO5_VIOLATIONS>
0

>  <MW_MONOISOTOPIC>
338.1154

>  <MOLECULAR_SPECIES>
NEUTRAL

>  <FULL_MOLFORMULA>
C20H18O5

$$$$

  SciTegic01161211222D

 23 24  0  0  0  0            999 V2000
   -5.0098   -2.1125    0.0000 C   0  0
   -5.0109   -2.9398    0.0000 C   0  0
   -4.2961   -3.3527    0.0000 C   0  0
   -3.5797   -2.9394    0.0000 C   0  0
   -3.5825   -2.1088    0.0000 C   0  0
   -4.2979   -1.6997    0.0000 C   0  0
   -2.8696   -1.6936    0.0000 C   0  0
   -2.1536   -2.1034    0.0000 C   0  0
   -1.4407   -1.6883    0.0000 C   0  0
   -0.7247   -2.0981    0.0000 C   0  0
   -1.4438   -0.8633    0.0000 O   0  0
   -0.0117   -1.6829    0.0000 C   0  0
    0.7043   -2.0927    0.0000 C   0  0
    1.4172   -1.6775    0.0000 C   0  0
    2.1332   -2.0873    0.0000 C   0  0
    2.1337   -2.9094    0.0000 C   0  0
    2.8488   -3.3191    0.0000 C   0  0
    3.5627   -2.9039    0.0000 C   0  0
    3.5570   -2.0746    0.0000 C   0  0
    2.8412   -1.6687    0.0000 C   0  0
   -0.0149   -0.8579    0.0000 O   0  0
   -5.7257   -3.3518    0.0000 O   0  0
    4.2793   -3.3128    0.0000 O   0  0
  5  6  2  0
 10 12  1  0
  6  1  1  0
 12 13  1  0
  1  2  2  0
 13 14  2  0
  5  7  1  0
 14 15  1  0
  3  4  2  0
 15 16  2  0
  7  8  2  0
 16 17  1  0
 17 18  2  0
  8  9  1  0
 18 19  1  0
  4  5  1  0
 19 20  2  0
 20 15  1  0
  9 10  1  0
 12 21  2  0
  2  3  1  0
  2 22  1  0
  9 11  2  0
 18 23  1  0
M  END
>  <MOLREGNO>
169845

>  <CHEMBLID>
CHEMBL105350

>  <SYNONYMS>
Bisdemethoxy Curcumin | Curcumin Lll

>  <MAX_PHASE>
0

>  <MOLWEIGHT>
308.33

>  <ALOGP>
3.59

>  <PSA>
74.6

>  <HBA>
4

>  <HBD>
2

>  <RO5>
0

>  <RTB>
6

>  <RO3>
N

>  <ACD_MOST_APKA>
8.5

>  <ACD_MOST_BPKA>


>  <ACD_LOGP>
3.16

>  <ACD_LOGD>
3.11

>  <AROMATIC_RINGS>
2

>  <HEAVY_ATOMS>
23

>  <QED_WEIGHTED>
.63

>  <HBA_LIPINSKI>
4

>  <HBD_LIPINSKI>
2

>  <NUM_LIPINSKI_RO5_VIOLATIONS>
0

>  <MW_MONOISOTOPIC>
308.1049

>  <MOLECULAR_SPECIES>
NEUTRAL

>  <FULL_MOLFORMULA>
C19H16O4

$$$$

  SciTegic01161211242D

 23 26  0  0  0  0            999 V2000
    8.9610  -14.2763    0.0000 C   0  0
    9.7561  -14.0715    0.0000 C   0  0
    8.6232  -15.0326    0.0000 C   0  0  2  0  0  0
    9.0079  -15.7655    0.0000 O   0  0
   10.4145  -14.5618    0.0000 C   0  0  1  0  0  0
   11.8718  -15.3337    0.0000 C   0  0
   11.8411  -14.5088    0.0000 C   0  0
   11.1102  -14.1227    0.0000 C   0  0  1  0  0  0
   11.1714  -15.7725    0.0000 C   0  0  2  0  0  0
   10.4429  -15.3836    0.0000 C   0  0  1  0  0  0
    9.7513  -15.8203    0.0000 C   0  0  2  0  0  0
    9.7780  -16.6436    0.0000 O   0  0
   10.5025  -17.0284    0.0000 C   0  0
   11.2043  -16.5940    0.0000 C   0  0  2  0  0  0
    7.7986  -15.0587    0.0000 C   0  0
    9.6477  -15.2738    0.0000 O   0  0
    9.3989  -14.4902    0.0000 O   0  0
   10.4064  -13.7357    0.0000 H   0  0
   11.8824  -16.1817    0.0000 H   0  0
   10.5348  -17.8530    0.0000 O   0  0
    9.1585  -16.3974    0.0000 H   0  0
   11.0783  -13.2983    0.0000 C   0  0
   11.9339  -16.9781    0.0000 C   0  0
  2  5  1  0
  1  3  1  0
  9 14  1  0
 10 11  1  0
 11 12  1  0
 13 12  1  0
 13 14  1  0
  1  2  1  0
  3 15  1  1
  5  8  1  0
 10 16  1  6
  9  6  1  0
 16 17  1  0
  3 17  1  0
  6  7  1  0
  5 18  1  6
  7  8  1  0
  9 19  1  6
  9 10  1  0
 13 20  2  0
  3  4  1  0
 11 21  1  1
  4 11  1  0
  8 22  1  6
  5 10  1  0
 14 23  1  1
M  END
>  <MOLREGNO>
575613

>  <CHEMBLID>
CHEMBL567597

>  <SYNONYMS>
GNF-Pf-5341 | (+)-Artemisinin | Artemisin | ARTEMISININ

>  <MAX_PHASE>
4

>  <MOLWEIGHT>
282.33

>  <ALOGP>
2

>  <PSA>
53.99

>  <HBA>
5

>  <HBD>
0

>  <RO5>
0

>  <RTB>
0

>  <RO3>
N

>  <ACD_MOST_APKA>


>  <ACD_MOST_BPKA>


>  <ACD_LOGP>
2.39

>  <ACD_LOGD>
2.39

>  <AROMATIC_RINGS>
0

>  <HEAVY_ATOMS>
20

>  <QED_WEIGHTED>
.5

>  <HBA_LIPINSKI>
5

>  <HBD_LIPINSKI>
0

>  <NUM_LIPINSKI_RO5_VIOLATIONS>
0

>  <MW_MONOISOTOPIC>
282.1467

>  <MOLECULAR_SPECIES>


>  <FULL_MOLFORMULA>
C15H22O5

$$$$

  SciTegic01161211242D

 24 27  0  0  0  0            999 V2000
    2.7850   -0.4134    0.0000 C   0  0  1  0  0  0
    2.0209   -0.0543    0.0000 C   0  0  2  0  0  0
    2.7850   -1.2317    0.0000 C   0  0  2  0  0  0
    1.3445   -0.5136    0.0000 O   0  0
    3.0062    0.3841    0.0000 O   0  0
    1.8079    0.7348    0.0000 O   0  0
    1.4071   -1.3277    0.0000 C   0  0  1  0  0  0
    3.5115    0.0083    0.0000 C   0  0  1  0  0  0
    2.2964    1.3862    0.0000 C   0  0  2  0  0  0
    2.1461   -1.6785    0.0000 C   0  0  2  0  0  0
    3.0104    0.9770    0.0000 O   0  0
    3.5240   -1.6534    0.0000 C   0  0
    3.6618    0.8100    0.0000 C   0  0
    4.2380   -0.4050    0.0000 C   0  0  1  0  0  0
    4.2380   -1.2401    0.0000 C   0  0
    3.1190    1.4237    0.0000 C   0  0
    0.7307   -1.7954    0.0000 O   0  0
    2.0751    2.1878    0.0000 C   0  0
    2.2088   -2.5052    0.0000 C   0  0
    4.9519    0.0000    0.0000 C   0  0
   -0.0208   -1.4447    0.0000 C   0  0
    2.8434   -2.0585    0.0000 H   0  0
    4.2713    0.3465    0.0000 H   0  0
    1.2192    0.1628    0.0000 H   0  0
  2  1  1  0
  3  1  1  0
  4  2  1  0
  1  5  1  6
  6  2  1  0
  7 10  1  0
  8  1  1  0
  9 11  1  0
 10  3  1  0
 11  5  1  0
 12  3  1  0
 13  8  1  0
 14  8  1  0
 15 14  1  0
 16 13  1  0
  7 17  1  1
  9 18  1  6
 10 19  1  1
 14 20  1  6
 21 17  1  0
  3 22  1  6
  8 23  1  6
  2 24  1  1
 12 15  1  0
 16  9  1  0
  9  6  1  0
  7  4  1  0
M  END
>  <MOLREGNO>
573926

>  <CHEMBLID>
CHEMBL566534

>  <SYNONYMS>
ARTEMETHER | Artemetheri

>  <MAX_PHASE>
4

>  <MOLWEIGHT>
298.37

>  <ALOGP>
2.03

>  <PSA>
46.15

>  <HBA>
5

>  <HBD>
0

>  <RO5>
0

>  <RTB>
1

>  <RO3>
N

>  <ACD_MOST_APKA>


>  <ACD_MOST_BPKA>


>  <ACD_LOGP>
2.82

>  <ACD_LOGD>
2.82

>  <AROMATIC_RINGS>
0

>  <HEAVY_ATOMS>
21

>  <QED_WEIGHTED>
.69

>  <HBA_LIPINSKI>
5

>  <HBD_LIPINSKI>
0

>  <NUM_LIPINSKI_RO5_VIOLATIONS>
0

>  <MW_MONOISOTOPIC>
298.178

>  <MOLECULAR_SPECIES>


>  <FULL_MOLFORMULA>
C16H26O5

$$$$

  CDK    9/16/09,9:50

 23 26  0  0  0  0  0  0  0  0999 V2000
   -0.1549  -16.0303    0.0000 C   0  0  0  0  0  0  0  0  0  0  0  0
   -0.9029  -16.3782    0.0000 C   0  0  0  0  0  0  0  0  0  0  0  0
   -1.6429  -16.0086    0.0000 C   0  0  0  0  0  0  0  0  0  0  0  0
    0.0383  -15.2261    0.0000 C   0  0  0  0  0  0  0  0  0  0  0  0
   -1.8202  -15.2044    0.0000 O   0  0  0  0  0  0  0  0  0  0  0  0
   -0.4695  -14.5715    0.0000 C   0  0  0  0  0  0  0  0  0  0  0  0
   -1.2977  -14.5650    0.0000 C   0  0  0  0  0  0  0  0  0  0  0  0
    0.5575  -16.4461    0.0000 C   0  0  0  0  0  0  0  0  0  0  0  0
    0.5575  -17.2732    0.0000 C   0  0  0  0  0  0  0  0  0  0  0  0
   -0.1549  -17.6845    0.0000 C   0  0  0  0  0  0  0  0  0  0  0  0
   -0.8683  -17.2732    0.0000 C   0  0  0  0  0  0  0  0  0  0  0  0
   -1.5788  -17.6875    0.0000 C   0  0  0  0  0  0  0  0  0  0  0  0
   -2.2974  -17.2793    0.0000 C   0  0  0  0  0  0  0  0  0  0  0  0
   -2.3010  -16.4522    0.0000 O   0  0  0  0  0  0  0  0  0  0  0  0
    1.2709  -16.0366    0.0000 C   0  0  0  0  0  0  0  0  0  0  0  0
    0.5621  -15.6191    0.0000 H   0  0  0  0  0  0  0  0  0  0  0  0
   -0.8637  -18.0912    0.0000 H   0  0  0  0  0  0  0  0  0  0  0  0
   -1.5742  -18.5100    0.0000 C   0  0  0  0  0  0  0  0  0  0  0  0
   -3.0074  -17.6946    0.0000 O   0  0  0  0  0  0  0  0  0  0  0  0
   -1.6360  -16.8299    0.0000 H   0  0  0  0  0  0  0  0  0  0  0  0
   -1.6473  -13.8205    0.0000 C   0  0  0  0  0  0  0  0  0  0  0  0
   -0.5804  -14.9701    0.0000 O   0  0  0  0  0  0  0  0  0  0  0  0
   -1.1607  -15.5505    0.0000 O   0  0  0  0  0  0  0  0  0  0  0  0
  2  3  1  0  0  0  0 
  4  6  1  0  0  0  0 
  1  2  1  0  0  0  0 
  5  7  1  0  0  0  0 
 11 12  1  0  0  0  0 
 12 13  1  0  0  0  0 
 13 14  1  0  0  0  0 
 14  3  1  0  0  0  0 
  6  7  1  0  0  0  0 
  8 15  1  6  0  0  0 
  8  9  1  0  0  0  0 
  1 16  1  6  0  0  0 
  1  4  1  0  0  0  0 
 11 17  1  6  0  0  0 
 12 18  1  1  0  0  0 
  3  5  1  0  0  0  0 
 13 19  1  1  0  0  0 
  8  1  1  0  0  0  0 
  3 20  1  1  0  0  0 
  9 10  1  0  0  0  0 
  7 21  1  1  0  0  0 
 10 11  1  0  0  0  0 
  7 22  1  0  0  0  0 
  2 11  1  0  0  0  0 
 22 23  1  0  0  0  0 
  2 23  1  6  0  0  0 
M  END
>  <MOLREGNO>
420212

>  <CHEMBLID>
CHEMBL252518

>  <SYNONYMS>
ARTENIMOL | GNF-Pf-5634

>  <MAX_PHASE>
4

>  <MOLWEIGHT>
284.35

>  <ALOGP>
1.62

>  <PSA>
57.15

>  <HBA>
5

>  <HBD>
1

>  <RO5>
0

>  <RTB>
0

>  <RO3>
N

>  <ACD_MOST_APKA>
12.62

>  <ACD_MOST_BPKA>


>  <ACD_LOGP>
2.19

>  <ACD_LOGD>
2.19

>  <AROMATIC_RINGS>
0

>  <HEAVY_ATOMS>
20

>  <QED_WEIGHTED>
.69

>  <HBA_LIPINSKI>
5

>  <HBD_LIPINSKI>
1

>  <NUM_LIPINSKI_RO5_VIOLATIONS>
0

>  <MW_MONOISOTOPIC>
284.1624

>  <MOLECULAR_SPECIES>
NEUTRAL

>  <FULL_MOLFORMULA>
C15H24O5

$$$$

  CDK    9/16/09,9:20

 19 20  0  0  0  0  0  0  0  0999 V2000
   12.6333  -18.1125    0.0000 C   0  0  0  0  0  0  0  0  0  0  0  0
   12.6333  -18.9375    0.0000 C   0  0  0  0  0  0  0  0  0  0  0  0
   13.3454  -19.3458    0.0000 C   0  0  0  0  0  0  0  0  0  0  0  0
   13.3454  -17.6958    0.0000 C   0  0  0  0  0  0  0  0  0  0  0  0
   14.0574  -18.1125    0.0000 C   0  0  0  0  0  0  0  0  0  0  0  0
   14.0539  -18.9375    0.0000 C   0  0  0  0  0  0  0  0  0  0  0  0
   14.7626  -19.3507    0.0000 C   0  0  0  0  0  0  0  0  0  0  0  0
   15.4794  -18.9435    0.0000 C   0  0  0  0  0  0  0  0  0  0  0  0
   15.4830  -18.1186    0.0000 C   0  0  0  0  0  0  0  0  0  0  0  0
   14.7696  -17.7007    0.0000 C   0  0  0  0  0  0  0  0  0  0  0  0
   14.0500  -17.2875    0.0000 H   0  0  0  0  0  0  0  0  0  0  0  0
   14.0458  -19.7583    0.0000 H   0  0  0  0  0  0  0  0  0  0  0  0
   14.7720  -16.8758    0.0000 C   0  0  0  0  0  0  0  0  0  0  0  0
   14.7580  -20.1757    0.0000 C   0  0  0  0  0  0  0  0  0  0  0  0
   14.0412  -20.5842    0.0000 C   0  0  0  0  0  0  0  0  0  0  0  0
   15.4701  -20.5922    0.0000 C   0  0  0  0  0  0  0  0  0  0  0  0
   13.3291  -20.1677    0.0000 O   0  0  0  0  0  0  0  0  0  0  0  0
   14.0366  -21.4092    0.0000 O   0  0  0  0  0  0  0  0  0  0  0  0
   11.9195  -19.3510    0.0000 C   0  0  0  0  0  0  0  0  0  0  0  0
  7  8  1  0  0  0  0 
  8  9  1  0  0  0  0 
 10  9  1  0  0  0  0 
  6  5  1  0  0  0  0 
  5 11  1  6  0  0  0 
  6 12  1  6  0  0  0 
  1  2  1  0  0  0  0 
 10 13  1  6  0  0  0 
  1  4  1  0  0  0  0 
  7 14  1  1  0  0  0 
  2  3  2  0  0  0  0 
 14 15  1  0  0  0  0 
  6  3  1  0  0  0  0 
 14 16  2  0  0  0  0 
  5  4  1  0  0  0  0 
 15 17  1  0  0  0  0 
  5 10  1  0  0  0  0 
 15 18  2  0  0  0  0 
  7  6  1  0  0  0  0 
  2 19  1  0  0  0  0 
M  END
>  <MOLREGNO>
505199

>  <CHEMBLID>
CHEMBL457385

>  <SYNONYMS>
Artemisinic Acid

>  <MAX_PHASE>
0

>  <MOLWEIGHT>
234.33

>  <ALOGP>
3.94

>  <PSA>
37.29

>  <HBA>
2

>  <HBD>
1

>  <RO5>
0

>  <RTB>
2

>  <RO3>
N

>  <ACD_MOST_APKA>
4.32

>  <ACD_MOST_BPKA>


>  <ACD_LOGP>
5.09

>  <ACD_LOGD>
2.09

>  <AROMATIC_RINGS>
0

>  <HEAVY_ATOMS>
17

>  <QED_WEIGHTED>
.58

>  <HBA_LIPINSKI>
2

>  <HBD_LIPINSKI>
1

>  <NUM_LIPINSKI_RO5_VIOLATIONS>
0

>  <MW_MONOISOTOPIC>
234.162

>  <MOLECULAR_SPECIES>
ACID

>  <FULL_MOLFORMULA>
C15H22O2

$$$$

  SciTegic12231509382D

 32 35  0  0  1  0            999 V2000
    0.8038    1.4695    0.0000 O   0  0
   -0.6252   -0.1805    0.0000 O   0  0
    0.0893   -1.4180    0.0000 O   0  0
    0.8038   -1.0055    0.0000 O   0  0
    2.2327   -1.0055    0.0000 O   0  0
   -2.0541   -1.0055    0.0000 O   0  0
   -2.0541   -2.6555    0.0000 O   0  0
    3.6617    1.4695    0.0000 O   0  0
   -0.6252   -3.4805    0.0000 O   0  0
   -2.7686    1.0570    0.0000 O   0  0
   -2.7686    2.7070    0.0000 O   0  0
    0.0893    0.2320    0.0000 C   0  0
    1.5183    0.2320    0.0000 C   0  0
    0.0893    1.0570    0.0000 C   0  0
    0.8038   -0.1805    0.0000 C   0  0
    1.5183    1.0570    0.0000 C   0  0
   -0.6252    1.4695    0.0000 C   0  0
    2.2327   -0.1805    0.0000 C   0  0
   -0.6252   -1.0055    0.0000 C   0  0  2  0  0  0
   -1.3396   -1.4180    0.0000 C   0  0  1  0  0  0
    2.2327    1.4695    0.0000 C   0  0
   -1.3396   -2.2430    0.0000 C   0  0  1  0  0  0
    2.9472    1.0570    0.0000 C   0  0
    2.9472    0.2320    0.0000 C   0  0
   -0.6252   -2.6555    0.0000 C   0  0  2  0  0  0
    0.0893   -2.2430    0.0000 C   0  0  2  0  0  0
   -1.3396    1.0570    0.0000 C   0  0
   -0.6252    2.2945    0.0000 C   0  0
   -2.0541    1.4695    0.0000 C   0  0
   -2.0541    2.2945    0.0000 C   0  0
   -1.3396    2.7070    0.0000 C   0  0
    0.8038   -2.6555    0.0000 C   0  0
  1 14  1  0
  1 16  1  0
  2 12  1  0
 19  2  1  6
  3 19  1  0
  3 26  1  0
  4 15  2  0
  5 18  1  0
 20  6  1  1
 22  7  1  1
  8 23  1  0
 25  9  1  6
 10 29  1  0
 11 30  1  0
 12 14  2  0
 12 15  1  0
 13 15  1  0
 13 16  1  0
 13 18  2  0
 14 17  1  0
 16 21  2  0
 17 27  1  0
 17 28  2  0
 18 24  1  0
 19 20  1  0
 20 22  1  0
 21 23  1  0
 22 25  1  0
 23 24  2  0
 25 26  1  0
 26 32  1  1
 27 29  2  0
 28 31  1  0
 29 30  1  0
 30 31  2  0
M  END
>  <MOLREGNO>
130164

>  <CHEMBLID>
CHEMBL82242

>  <SYNONYMS>
Quercitrin

>  <MAX_PHASE>
0

>  <MOLWEIGHT>
448.38

>  <ALOGP>
.59

>  <PSA>
186.37

>  <HBA>
11

>  <HBD>
7

>  <RO5>
2

>  <RTB>
3

>  <RO3>
N

>  <ACD_MOST_APKA>
6.17

>  <ACD_MOST_BPKA>


>  <ACD_LOGP>
.58

>  <ACD_LOGD>
-1.07

>  <AROMATIC_RINGS>
2

>  <HEAVY_ATOMS>
32

>  <QED_WEIGHTED>
.33

>  <HBA_LIPINSKI>
11

>  <HBD_LIPINSKI>
7

>  <NUM_LIPINSKI_RO5_VIOLATIONS>
2

>  <MW_MONOISOTOPIC>
448.1006

>  <MOLECULAR_SPECIES>
ACID

>  <FULL_MOLFORMULA>
C21H20O11

$$$$

  SciTegic12231509382D

 38 41  0  0  0  0            999 V2000
   -1.0717    1.0313    0.0000 O   0  0
    1.0717   -1.0313    0.0000 O   0  0
   -3.9296    0.2063    0.0000 O   0  0
    3.9296   -0.2063    0.0000 O   0  0
   -3.9296   -1.4437    0.0000 O   0  0
    3.9296    1.4437    0.0000 O   0  0
   -3.2151    1.4437    0.0000 O   0  0
    3.2151   -1.4438    0.0000 O   0  0
   -0.3572   -0.2062    0.0000 C   0  0
    0.3572    0.2062    0.0000 C   0  0
   -1.7862   -0.2062    0.0000 C   0  0
    1.7862    0.2062    0.0000 C   0  0
   -1.0717    0.2063    0.0000 C   0  0
    1.0717   -0.2063    0.0000 C   0  0
   -1.7862   -1.0312    0.0000 C   0  0
    1.7862    1.0312    0.0000 C   0  0
   -0.3572   -1.0313    0.0000 C   0  0
    0.3572    1.0312    0.0000 C   0  0
   -2.5006    0.2063    0.0000 C   0  0
    2.5006   -0.2063    0.0000 C   0  0
   -2.5006   -1.4437    0.0000 C   0  0
    2.5006    1.4437    0.0000 C   0  0
   -1.0717   -1.4437    0.0000 C   0  0
    1.0717    1.4437    0.0000 C   0  0
   -3.2151   -0.2062    0.0000 C   0  0
    3.2151    0.2062    0.0000 C   0  0
   -3.2151   -1.0312    0.0000 C   0  0
    3.2151    1.0312    0.0000 C   0  0
   -2.5006   -2.2687    0.0000 C   0  0
    2.5006    2.2687    0.0000 C   0  0
   -2.5006    1.0313    0.0000 C   0  0
    2.5006   -1.0313    0.0000 C   0  0
    0.3572   -1.4438    0.0000 C   0  0
   -0.3572    1.4438    0.0000 C   0  0
   -3.2151   -2.6812    0.0000 C   0  0
   -1.7862   -2.6812    0.0000 C   0  0
    3.2151    2.6812    0.0000 C   0  0
    1.7862    2.6812    0.0000 C   0  0
  1 13  1  0
  2 14  1  0
  3 25  1  0
  4 26  1  0
  5 27  1  0
  6 28  1  0
  7 31  2  0
  8 32  2  0
  9 10  1  0
  9 13  1  0
  9 17  2  0
 10 14  1  0
 10 18  2  0
 11 13  2  0
 11 15  1  0
 11 19  1  0
 12 14  2  0
 12 16  1  0
 12 20  1  0
 15 21  1  0
 15 23  2  0
 16 22  1  0
 16 24  2  0
 17 23  1  0
 17 33  1  0
 18 24  1  0
 18 34  1  0
 19 25  2  0
 19 31  1  0
 20 26  2  0
 20 32  1  0
 21 27  2  0
 21 29  1  0
 22 28  2  0
 22 30  1  0
 25 27  1  0
 26 28  1  0
 29 35  1  0
 29 36  1  0
 30 37  1  0
 30 38  1  0
M  END
>  <MOLREGNO>
78169

>  <CHEMBLID>
CHEMBL51483

>  <SYNONYMS>
Gossypol | (-)-Gossypol

>  <MAX_PHASE>
0

>  <MOLWEIGHT>
518.55

>  <ALOGP>
6.59

>  <PSA>
155.52

>  <HBA>
8

>  <HBD>
6

>  <RO5>
3

>  <RTB>
5

>  <RO3>
N

>  <ACD_MOST_APKA>
7.15

>  <ACD_MOST_BPKA>


>  <ACD_LOGP>
5.42

>  <ACD_LOGD>
4.8

>  <AROMATIC_RINGS>
4

>  <HEAVY_ATOMS>
38

>  <QED_WEIGHTED>
.13

>  <HBA_LIPINSKI>
8

>  <HBD_LIPINSKI>
6

>  <NUM_LIPINSKI_RO5_VIOLATIONS>
2

>  <MW_MONOISOTOPIC>
518.1941

>  <MOLECULAR_SPECIES>
NEUTRAL

>  <FULL_MOLFORMULA>
C30H30O8

$$$$

  CDK    8/10/10,12:22

 25 27  0  0  0  0  0  0  0  0999 V2000
   -4.5046   -0.4333    0.0000 C   0  0  0  0  0  0  0  0  0  0  0  0
   -4.5046   -1.2584    0.0000 C   0  0  0  0  0  0  0  0  0  0  0  0
   -3.7924   -1.6669    0.0000 C   0  0  0  0  0  0  0  0  0  0  0  0
   -3.7924   -0.0167    0.0000 C   0  0  0  0  0  0  0  0  0  0  0  0
   -3.0804   -0.4333    0.0000 C   0  0  0  0  0  0  0  0  0  0  0  0
   -3.0794   -1.2584    0.0000 C   0  0  0  0  0  0  0  0  0  0  0  0
   -2.3682   -1.6678    0.0000 C   0  0  0  0  0  0  0  0  0  0  0  0
   -1.6537   -1.2566    0.0000 C   0  0  0  0  0  0  0  0  0  0  0  0
   -2.3703   -0.0176    0.0000 C   0  0  0  0  0  0  0  0  0  0  0  0
   -1.6559   -0.4334    0.0000 C   0  0  0  0  0  0  0  0  0  0  0  0
   -0.9406   -0.0226    0.0000 C   0  0  0  0  0  0  0  0  0  0  0  0
   -0.9386    0.8039    0.0000 C   0  0  0  0  0  0  0  0  0  0  0  0
   -1.6580    1.2178    0.0000 C   0  0  0  0  0  0  0  0  0  0  0  0
   -2.3702    0.8046    0.0000 C   0  0  0  0  0  0  0  0  0  0  0  0
   -3.0836   -2.0794    0.0000 H   0  0  0  0  0  0  0  0  0  0  0  0
   -4.2129   -2.3794    0.0000 C   0  0  0  0  0  0  0  0  0  0  0  0
   -3.5836   -2.4627    0.0000 C   0  0  0  0  0  0  0  0  0  0  0  0
   -3.3003    0.3667    0.0000 C   0  0  0  0  0  0  0  0  0  0  0  0
   -3.0878    1.1668    0.0000 O   0  0  0  0  0  0  0  0  0  0  0  0
   -4.1254    0.3631    0.0000 O   0  0  0  0  0  0  0  0  0  0  0  0
   -2.3752    1.6335    0.0000 O   0  0  0  0  0  0  0  0  0  0  0  0
   -1.6594    2.0429    0.0000 O   0  0  0  0  0  0  0  0  0  0  0  0
   -0.2239    1.2160    0.0000 C   0  0  0  0  0  0  0  0  0  0  0  0
    0.4904    0.8032    0.0000 C   0  0  0  0  0  0  0  0  0  0  0  0
   -0.2235    2.0411    0.0000 C   0  0  0  0  0  0  0  0  0  0  0  0
 11 12  2  0  0  0  0 
  1  2  1  0  0  0  0 
 12 13  1  0  0  0  0 
  1  4  1  0  0  0  0 
 13 14  2  0  0  0  0 
 14  9  1  0  0  0  0 
  2  3  1  0  0  0  0 
  6 15  1  6  0  0  0 
  5  9  1  0  0  0  0 
  3 16  1  0  0  0  0 
  6  7  1  0  0  0  0 
  3 17  1  0  0  0  0 
  7  8  1  0  0  0  0 
  5 18  1  1  0  0  0 
  8 10  1  0  0  0  0 
 18 19  1  0  0  0  0 
  3  6  1  0  0  0  0 
 18 20  2  0  0  0  0 
  5  4  1  0  0  0  0 
 14 21  1  0  0  0  0 
  9 10  2  0  0  0  0 
 13 22  1  0  0  0  0 
  5  6  1  0  0  0  0 
 12 23  1  0  0  0  0 
 10 11  1  0  0  0  0 
 23 24  1  0  0  0  0 
 23 25  1  0  0  0  0 
M  END
>  <MOLREGNO>
484265

>  <CHEMBLID>
CHEMBL484853

>  <SYNONYMS>
Carnosolic Acid | Carsonic Acid | Carnosic Acid

>  <MAX_PHASE>
0

>  <MOLWEIGHT>
332.43

>  <ALOGP>
4.91

>  <PSA>
77.76

>  <HBA>
4

>  <HBD>
3

>  <RO5>
0

>  <RTB>
2

>  <RO3>
N

>  <ACD_MOST_APKA>
4.14

>  <ACD_MOST_BPKA>


>  <ACD_LOGP>
5.41

>  <ACD_LOGD>
2.26

>  <AROMATIC_RINGS>
1

>  <HEAVY_ATOMS>
24

>  <QED_WEIGHTED>
.67

>  <HBA_LIPINSKI>
4

>  <HBD_LIPINSKI>
3

>  <NUM_LIPINSKI_RO5_VIOLATIONS>
0

>  <MW_MONOISOTOPIC>
332.1988

>  <MOLECULAR_SPECIES>
ACID

>  <FULL_MOLFORMULA>
C20H28O4

$$$$

  CDK    8/10/10,12:22

 26 27  0  0  0  0  0  0  0  0999 V2000
   -2.0598   -0.5958    0.0000 C   0  0  0  0  0  0  0  0  0  0  0  0
   -2.0609   -1.4232    0.0000 C   0  0  0  0  0  0  0  0  0  0  0  0
   -1.3461   -1.8360    0.0000 C   0  0  0  0  0  0  0  0  0  0  0  0
   -0.6297   -1.4227    0.0000 C   0  0  0  0  0  0  0  0  0  0  0  0
   -0.6325   -0.5922    0.0000 C   0  0  0  0  0  0  0  0  0  0  0  0
   -1.3479   -0.1830    0.0000 C   0  0  0  0  0  0  0  0  0  0  0  0
   -2.7743   -0.1835    0.0000 O   0  0  0  0  0  0  0  0  0  0  0  0
   -2.7757   -1.8351    0.0000 O   0  0  0  0  0  0  0  0  0  0  0  0
    0.0804   -0.1770    0.0000 C   0  0  0  0  0  0  0  0  0  0  0  0
    0.7964   -0.5868    0.0000 C   0  0  0  0  0  0  0  0  0  0  0  0
    1.5093   -0.1716    0.0000 C   0  0  0  0  0  0  0  0  0  0  0  0
    2.2259   -0.5813    0.0000 O   0  0  0  0  0  0  0  0  0  0  0  0
    1.5068    0.6535    0.0000 O   0  0  0  0  0  0  0  0  0  0  0  0
    2.9387   -0.1658    0.0000 C   0  0  0  0  0  0  0  0  0  0  0  0
    3.6549   -0.5754    0.0000 C   0  0  0  0  0  0  0  0  0  0  0  0
    2.9352    0.6591    0.0000 C   0  0  0  0  0  0  0  0  0  0  0  0
    3.6486    1.0773    0.0000 O   0  0  0  0  0  0  0  0  0  0  0  0
    2.2197    1.0713    0.0000 O   0  0  0  0  0  0  0  0  0  0  0  0
    4.3676   -0.1599    0.0000 C   0  0  0  0  0  0  0  0  0  0  0  0
    5.0816   -0.5724    0.0000 C   0  0  0  0  0  0  0  0  0  0  0  0
    5.7938   -0.1576    0.0000 C   0  0  0  0  0  0  0  0  0  0  0  0
    5.7908    0.6683    0.0000 C   0  0  0  0  0  0  0  0  0  0  0  0
    5.0696    1.0776    0.0000 C   0  0  0  0  0  0  0  0  0  0  0  0
    4.3603    0.6605    0.0000 C   0  0  0  0  0  0  0  0  0  0  0  0
    6.5098   -0.5674    0.0000 O   0  0  0  0  0  0  0  0  0  0  0  0
    6.5030    1.0847    0.0000 O   0  0  0  0  0  0  0  0  0  0  0  0
 11 13  2  0  0  0  0 
  1  2  2  0  0  0  0 
 12 14  1  0  0  0  0 
  1  7  1  0  0  0  0 
 14 15  1  0  0  0  0 
  3  4  2  0  0  0  0 
 14 16  1  1  0  0  0 
  2  8  1  0  0  0  0 
 16 17  1  0  0  0  0 
 16 18  2  0  0  0  0 
  5  9  1  0  0  0  0 
 15 19  1  0  0  0  0 
  4  5  1  0  0  0  0 
 19 20  2  0  0  0  0 
  9 10  2  0  0  0  0 
 20 21  1  0  0  0  0 
  2  3  1  0  0  0  0 
 21 22  2  0  0  0  0 
 10 11  1  0  0  0  0 
 22 23  1  0  0  0  0 
  5  6  2  0  0  0  0 
 23 24  2  0  0  0  0 
 24 19  1  0  0  0  0 
  6  1  1  0  0  0  0 
 21 25  1  0  0  0  0 
 11 12  1  0  0  0  0 
 22 26  1  0  0  0  0 
M  END
>  <MOLREGNO>
191163

>  <CHEMBLID>
CHEMBL324842

>  <SYNONYMS>
Rosmarinic acid

>  <MAX_PHASE>
0

>  <MOLWEIGHT>
360.31

>  <ALOGP>
2.71

>  <PSA>
144.52

>  <HBA>
8

>  <HBD>
5

>  <RO5>
0

>  <RTB>
7

>  <RO3>
N

>  <ACD_MOST_APKA>
2.78

>  <ACD_MOST_BPKA>


>  <ACD_LOGP>
.87

>  <ACD_LOGD>
-2.84

>  <AROMATIC_RINGS>
2

>  <HEAVY_ATOMS>
26

>  <QED_WEIGHTED>
.29

>  <HBA_LIPINSKI>
8

>  <HBD_LIPINSKI>
5

>  <NUM_LIPINSKI_RO5_VIOLATIONS>
0

>  <MW_MONOISOTOPIC>
360.0845

>  <MOLECULAR_SPECIES>
ACID

>  <FULL_MOLFORMULA>
C18H16O8

$$$$

  SciTegic02011314062D

 26 27  0  0  0  0            999 V2000
   -2.0598   -0.5958    0.0000 C   0  0
   -2.0609   -1.4232    0.0000 C   0  0
   -1.3461   -1.8360    0.0000 C   0  0
   -0.6297   -1.4227    0.0000 C   0  0
   -0.6325   -0.5922    0.0000 C   0  0
   -1.3479   -0.1830    0.0000 C   0  0
   -2.7743   -0.1835    0.0000 O   0  0
   -2.7757   -1.8351    0.0000 O   0  0
    0.0804   -0.1770    0.0000 C   0  0
    0.7964   -0.5868    0.0000 C   0  0
    1.5093   -0.1716    0.0000 C   0  0
    2.2259   -0.5813    0.0000 O   0  0
    1.5068    0.6535    0.0000 O   0  0
    2.9387   -0.1658    0.0000 C   0  0  2  0  0  0
    3.6549   -0.5754    0.0000 C   0  0
    2.9352    0.6591    0.0000 C   0  0
    3.6486    1.0773    0.0000 O   0  0
    2.2197    1.0713    0.0000 O   0  0
    4.3676   -0.1599    0.0000 C   0  0
    5.0816   -0.5724    0.0000 C   0  0
    5.7938   -0.1576    0.0000 C   0  0
    5.7908    0.6683    0.0000 C   0  0
    5.0696    1.0776    0.0000 C   0  0
    4.3603    0.6605    0.0000 C   0  0
    6.5098   -0.5674    0.0000 O   0  0
    6.5030    1.0847    0.0000 O   0  0
 11 13  2  0
  1  2  2  0
 12 14  1  0
  1  7  1  0
 14 15  1  0
  3  4  2  0
 14 16  1  1
  2  8  1  0
 16 17  1  0
 16 18  2  0
  5  9  1  0
 15 19  1  0
  4  5  1  0
 19 20  2  0
  9 10  2  3
 20 21  1  0
  2  3  1  0
 21 22  2  0
 10 11  1  0
 22 23  1  0
  5  6  2  0
 23 24  2  0
 24 19  1  0
  6  1  1  0
 21 25  1  0
 11 12  1  0
 22 26  1  0
M  END
>  <MOLREGNO>
1383809

>  <CHEMBLID>
CHEMBL2111558

>  <SYNONYMS>
Rosmarinic Acid

>  <MAX_PHASE>
0

>  <MOLWEIGHT>
360.31

>  <ALOGP>
2.71

>  <PSA>
144.52

>  <HBA>
8

>  <HBD>
5

>  <RO5>
0

>  <RTB>
7

>  <RO3>
N

>  <ACD_MOST_APKA>
4.21

>  <ACD_MOST_BPKA>


>  <ACD_LOGP>
3.95

>  <ACD_LOGD>
.87

>  <AROMATIC_RINGS>
2

>  <HEAVY_ATOMS>
26

>  <QED_WEIGHTED>
.29

>  <HBA_LIPINSKI>
8

>  <HBD_LIPINSKI>
5

>  <NUM_LIPINSKI_RO5_VIOLATIONS>
0

>  <MW_MONOISOTOPIC>
360.0845

>  <MOLECULAR_SPECIES>
ACID

>  <FULL_MOLFORMULA>
C18H16O8

$$$$

  SciTegic01161211222D

 26 29  0  0  0  0            999 V2000
   -4.3456    0.0189    0.0000 C   0  0
   -4.3456   -0.8090    0.0000 C   0  0
   -3.6332   -1.2164    0.0000 C   0  0
   -3.6332    0.4352    0.0000 C   0  0
   -2.9209    0.0189    0.0000 C   0  0  1  0  0  0
   -2.9193   -0.8090    0.0000 C   0  0  1  0  0  0
   -2.2041   -1.2180    0.0000 C   0  0
   -1.4921   -0.8061    0.0000 C   0  0  1  0  0  0
   -2.2074    0.4337    0.0000 C   0  0
   -1.4912    0.0188    0.0000 C   0  0
   -0.7782    0.4302    0.0000 C   0  0
   -0.7752    1.2561    0.0000 C   0  0
   -1.4944    1.6722    0.0000 C   0  0
   -2.2072    1.2572    0.0000 C   0  0
   -4.0509   -1.9296    0.0000 C   0  0
   -3.4245   -2.0120    0.0000 C   0  0
   -2.9215   -1.6304    0.0000 H   0  0
   -2.9238    0.8427    0.0000 C   0  0
   -3.5154    1.4301    0.0000 O   0  0
   -2.2084   -0.3885    0.0000 O   0  0
   -0.0587    1.6695    0.0000 C   0  0
    0.6572    1.2550    0.0000 C   0  0
   -0.0581    2.4932    0.0000 C   0  0
   -0.7759   -1.2201    0.0000 H   0  0
   -2.9240    1.6701    0.0000 O   0  0
   -1.4967    2.4959    0.0000 O   0  0
  1  4  1  0
  2  3  1  0
  3  6  1  0
  5  4  1  0
  5  6  1  0
  5  9  1  0
  6  7  1  0
  7  8  1  0
  8 10  1  0
  9 10  2  0
 10 11  1  0
 11 12  2  0
 12 13  1  0
 13 14  2  0
 14  9  1  0
  3 15  1  0
  3 16  1  0
  6 17  1  6
  5 18  1  1
 18 19  2  0
  8 20  1  0
 20 18  1  0
 12 21  1  0
 21 22  1  0
 21 23  1  0
  8 24  1  1
  1  2  1  0
 14 25  1  0
 13 26  1  0
M  END
>  <MOLREGNO>
368005

>  <CHEMBLID>
CHEMBL218693

>  <SYNONYMS>
Carnosol

>  <MAX_PHASE>
0

>  <MOLWEIGHT>
330.42

>  <ALOGP>
4.39

>  <PSA>
66.76

>  <HBA>
4

>  <HBD>
2

>  <RO5>
0

>  <RTB>
1

>  <RO3>
N

>  <ACD_MOST_APKA>
8.91

>  <ACD_MOST_BPKA>


>  <ACD_LOGP>
2.83

>  <ACD_LOGD>
2.82

>  <AROMATIC_RINGS>
1

>  <HEAVY_ATOMS>
24

>  <QED_WEIGHTED>
.59

>  <HBA_LIPINSKI>
4

>  <HBD_LIPINSKI>
2

>  <NUM_LIPINSKI_RO5_VIOLATIONS>
0

>  <MW_MONOISOTOPIC>
330.1831

>  <MOLECULAR_SPECIES>
NEUTRAL

>  <FULL_MOLFORMULA>
C20H26O4

$$$$

  CDK    6/4/10,11:42

 20 22  0  0  0  0  0  0  0  0999 V2000
   -3.6867  -11.1176    0.0000 O   0  0  0  0  0  0  0  0  0  0  0  0
   -3.6648   -9.7859    0.0000 C   0  0  0  0  0  0  0  0  0  0  0  0
   -4.1565  -10.4440    0.0000 C   0  0  0  0  0  0  0  0  0  0  0  0
   -2.8847  -10.0542    0.0000 C   0  0  0  0  0  0  0  0  0  0  0  0
   -2.9004  -10.8811    0.0000 C   0  0  0  0  0  0  0  0  0  0  0  0
   -2.1962  -11.3059    0.0000 C   0  0  0  0  0  0  0  0  0  0  0  0
   -2.1647   -9.6521    0.0000 C   0  0  0  0  0  0  0  0  0  0  0  0
   -1.4558  -10.0815    0.0000 C   0  0  0  0  0  0  0  0  0  0  0  0
   -1.4703  -10.9117    0.0000 C   0  0  0  0  0  0  0  0  0  0  0  0
   -0.7624  -11.3370    0.0000 O   0  0  0  0  0  0  0  0  0  0  0  0
   -0.0356  -10.9367    0.0000 C   0  0  0  0  0  0  0  0  0  0  0  0
   -0.0211  -10.1065    0.0000 C   0  0  0  0  0  0  0  0  0  0  0  0
   -0.7335   -9.6765    0.0000 C   0  0  0  0  0  0  0  0  0  0  0  0
    0.6688  -11.3612    0.0000 O   0  0  0  0  0  0  0  0  0  0  0  0
   -2.2147  -12.1281    0.0000 O   0  0  0  0  0  0  0  0  0  0  0  0
   -2.9360  -12.5230    0.0000 C   0  0  0  0  0  0  0  0  0  0  0  0
   -2.9546  -13.3452    0.0000 C   0  0  0  0  0  0  0  0  0  0  0  0
   -3.6759  -13.7403    0.0000 C   0  0  0  0  0  0  0  0  0  0  0  0
   -3.6944  -14.5625    0.0000 C   0  0  0  0  0  0  0  0  0  0  0  0
   -4.3787  -13.3131    0.0000 C   0  0  0  0  0  0  0  0  0  0  0  0
  1  5  1  0  0  0  0 
  4  2  1  0  0  0  0 
  2  3  2  0  0  0  0 
  8 13  1  0  0  0  0 
  9 10  1  0  0  0  0 
 10 11  1  0  0  0  0 
 11 12  1  0  0  0  0 
 12 13  2  0  0  0  0 
  4  7  1  0  0  0  0 
 11 14  2  0  0  0  0 
  5  6  1  0  0  0  0 
  6 15  1  0  0  0  0 
  6  9  2  0  0  0  0 
 15 16  1  0  0  0  0 
  8  7  2  0  0  0  0 
 16 17  1  0  0  0  0 
  8  9  1  0  0  0  0 
 17 18  2  0  0  0  0 
  3  1  1  0  0  0  0 
 18 19  1  0  0  0  0 
  4  5  2  0  0  0  0 
 18 20  1  0  0  0  0 
M  END
>  <MOLREGNO>
443989

>  <CHEMBLID>
CHEMBL453805

>  <SYNONYMS>
PENTOSALEN

>  <MAX_PHASE>
0

>  <MOLWEIGHT>
270.28

>  <ALOGP>
3.65

>  <PSA>
48.67

>  <HBA>
3

>  <HBD>
0

>  <RO5>
0

>  <RTB>
3

>  <RO3>
N

>  <ACD_MOST_APKA>


>  <ACD_MOST_BPKA>


>  <ACD_LOGP>
2.98

>  <ACD_LOGD>
2.98

>  <AROMATIC_RINGS>
2

>  <HEAVY_ATOMS>
20

>  <QED_WEIGHTED>
.49

>  <HBA_LIPINSKI>
4

>  <HBD_LIPINSKI>
0

>  <NUM_LIPINSKI_RO5_VIOLATIONS>
0

>  <MW_MONOISOTOPIC>
270.0892

>  <MOLECULAR_SPECIES>


>  <FULL_MOLFORMULA>
C16H14O4

$$$$

  CDK    6/4/10,11:42

 20 22  0  0  0  0  0  0  0  0999 V2000
   -3.9073   -1.5231    0.0000 O   0  0  0  0  0  0  0  0  0  0  0  0
   -3.8854   -0.1912    0.0000 C   0  0  0  0  0  0  0  0  0  0  0  0
   -4.3771   -0.8494    0.0000 C   0  0  0  0  0  0  0  0  0  0  0  0
   -3.1052   -0.4596    0.0000 C   0  0  0  0  0  0  0  0  0  0  0  0
   -3.1209   -1.2866    0.0000 C   0  0  0  0  0  0  0  0  0  0  0  0
   -2.4165   -1.7114    0.0000 C   0  0  0  0  0  0  0  0  0  0  0  0
   -2.3850   -0.0574    0.0000 C   0  0  0  0  0  0  0  0  0  0  0  0
   -1.6762   -0.4868    0.0000 C   0  0  0  0  0  0  0  0  0  0  0  0
   -1.6907   -1.3172    0.0000 C   0  0  0  0  0  0  0  0  0  0  0  0
   -0.9827   -1.7425    0.0000 O   0  0  0  0  0  0  0  0  0  0  0  0
   -0.2557   -1.3421    0.0000 C   0  0  0  0  0  0  0  0  0  0  0  0
   -0.2413   -0.5118    0.0000 C   0  0  0  0  0  0  0  0  0  0  0  0
   -0.9538   -0.0819    0.0000 C   0  0  0  0  0  0  0  0  0  0  0  0
    0.4486   -1.7667    0.0000 O   0  0  0  0  0  0  0  0  0  0  0  0
   -2.3706    0.7650    0.0000 O   0  0  0  0  0  0  0  0  0  0  0  0
   -3.0754    1.1887    0.0000 C   0  0  0  0  0  0  0  0  0  0  0  0
   -3.0610    2.0111    0.0000 C   0  0  0  0  0  0  0  0  0  0  0  0
   -3.7659    2.4349    0.0000 C   0  0  0  0  0  0  0  0  0  0  0  0
   -3.7514    3.2572    0.0000 C   0  0  0  0  0  0  0  0  0  0  0  0
   -4.4853    2.0362    0.0000 C   0  0  0  0  0  0  0  0  0  0  0  0
  1  5  1  0  0  0  0 
  4  2  1  0  0  0  0 
  2  3  2  0  0  0  0 
  8 13  1  0  0  0  0 
  9 10  1  0  0  0  0 
 10 11  1  0  0  0  0 
 11 12  1  0  0  0  0 
 12 13  2  0  0  0  0 
  4  7  1  0  0  0  0 
 11 14  2  0  0  0  0 
  5  6  1  0  0  0  0 
  7 15  1  0  0  0  0 
  6  9  2  0  0  0  0 
 15 16  1  0  0  0  0 
  8  7  2  0  0  0  0 
 16 17  1  0  0  0  0 
  8  9  1  0  0  0  0 
 17 18  2  0  0  0  0 
  3  1  1  0  0  0  0 
 18 19  1  0  0  0  0 
  4  5  2  0  0  0  0 
 18 20  1  0  0  0  0 
M  END
>  <MOLREGNO>
446565

>  <CHEMBLID>
CHEMBL448060

>  <SYNONYMS>
Isoimperatorin

>  <MAX_PHASE>
0

>  <MOLWEIGHT>
270.28

>  <ALOGP>
3.65

>  <PSA>
48.67

>  <HBA>
3

>  <HBD>
0

>  <RO5>
0

>  <RTB>
3

>  <RO3>
N

>  <ACD_MOST_APKA>


>  <ACD_MOST_BPKA>


>  <ACD_LOGP>
3.5

>  <ACD_LOGD>
3.5

>  <AROMATIC_RINGS>
2

>  <HEAVY_ATOMS>
20

>  <QED_WEIGHTED>
.49

>  <HBA_LIPINSKI>
4

>  <HBD_LIPINSKI>
0

>  <NUM_LIPINSKI_RO5_VIOLATIONS>
0

>  <MW_MONOISOTOPIC>
270.0892

>  <MOLECULAR_SPECIES>


>  <FULL_MOLFORMULA>
C16H14O4

$$$$

  CDK    8/10/10,12:22

 32 35  0  0  0  0  0  0  0  0999 V2000
   -2.8366  -16.1204    0.0000 C   0  0  0  0  0  0  0  0  0  0  0  0
   -2.8378  -16.9471    0.0000 C   0  0  0  0  0  0  0  0  0  0  0  0
   -2.1236  -17.3596    0.0000 C   0  0  0  0  0  0  0  0  0  0  0  0
   -2.1254  -15.7079    0.0000 C   0  0  0  0  0  0  0  0  0  0  0  0
   -1.4072  -16.9445    0.0000 C   0  0  0  0  0  0  0  0  0  0  0  0
   -0.6925  -17.3533    0.0000 O   0  0  0  0  0  0  0  0  0  0  0  0
    0.0233  -16.9387    0.0000 C   0  0  0  0  0  0  0  0  0  0  0  0
    0.0199  -16.1109    0.0000 C   0  0  0  0  0  0  0  0  0  0  0  0
   -0.6993  -15.6976    0.0000 C   0  0  0  0  0  0  0  0  0  0  0  0
    0.7355  -17.3486    0.0000 C   0  0  0  0  0  0  0  0  0  0  0  0
    0.7364  -18.1740    0.0000 C   0  0  0  0  0  0  0  0  0  0  0  0
    1.4505  -18.5842    0.0000 C   0  0  0  0  0  0  0  0  0  0  0  0
    2.1643  -18.1700    0.0000 C   0  0  0  0  0  0  0  0  0  0  0  0
    2.1594  -17.3414    0.0000 C   0  0  0  0  0  0  0  0  0  0  0  0
    1.4446  -16.9350    0.0000 C   0  0  0  0  0  0  0  0  0  0  0  0
   -0.7038  -14.8733    0.0000 O   0  0  0  0  0  0  0  0  0  0  0  0
   -1.4156  -16.1163    0.0000 C   0  0  0  0  0  0  0  0  0  0  0  0
   -2.1268  -14.8835    0.0000 O   0  0  0  0  0  0  0  0  0  0  0  0
   -3.5506  -15.7084    0.0000 O   0  0  0  0  0  0  0  0  0  0  0  0
   -3.5520  -17.3587    0.0000 O   0  0  0  0  0  0  0  0  0  0  0  0
   -3.5526  -18.1830    0.0000 C   0  0  0  0  0  0  0  0  0  0  0  0
   -4.2663  -18.5937    0.0000 O   0  0  0  0  0  0  0  0  0  0  0  0
   -4.2690  -19.4144    0.0000 C   0  0  0  0  0  0  0  0  0  0  0  0
   -3.5571  -19.8311    0.0000 C   0  0  0  0  0  0  0  0  0  0  0  0
   -2.8411  -19.4207    0.0000 C   0  0  0  0  0  0  0  0  0  0  0  0
   -2.8368  -18.5937    0.0000 C   0  0  0  0  0  0  0  0  0  0  0  0
   -2.1224  -18.1824    0.0000 O   0  0  0  0  0  0  0  0  0  0  0  0
   -2.1290  -19.8359    0.0000 O   0  0  0  0  0  0  0  0  0  0  0  0
   -3.5609  -20.6553    0.0000 O   0  0  0  0  0  0  0  0  0  0  0  0
   -4.9847  -19.8234    0.0000 C   0  0  0  0  0  0  0  0  0  0  0  0
   -5.6967  -19.4079    0.0000 O   0  0  0  0  0  0  0  0  0  0  0  0
   -4.9885  -20.6476    0.0000 O   0  0  0  0  0  0  0  0  0  0  0  0
  7 10  1  0  0  0  0 
 17  9  1  0  0  0  0 
  9 16  2  0  0  0  0 
  5  6  1  0  0  0  0 
  4 17  2  0  0  0  0 
  6  7  1  0  0  0  0 
  4 18  1  0  0  0  0 
  7  8  2  0  0  0  0 
  1 19  1  0  0  0  0 
  8  9  1  0  0  0  0 
  2 20  1  0  0  0  0 
 17  5  1  0  0  0  0 
 21 20  1  1  0  0  0 
 21 22  1  0  0  0  0 
 10 11  2  0  0  0  0 
  2  3  1  0  0  0  0 
 11 12  1  0  0  0  0 
  3  5  2  0  0  0  0 
 21 26  1  0  0  0  0 
 22 23  1  0  0  0  0 
 23 24  1  0  0  0  0 
 24 25  1  0  0  0  0 
 25 26  1  0  0  0  0 
 12 13  2  0  0  0  0 
 26 27  1  6  0  0  0 
  1  2  2  0  0  0  0 
 25 28  1  1  0  0  0 
 13 14  1  0  0  0  0 
 24 29  1  6  0  0  0 
  4  1  1  0  0  0  0 
 23 30  1  1  0  0  0 
 14 15  2  0  0  0  0 
 30 31  1  0  0  0  0 
 15 10  1  0  0  0  0 
 30 32  2  0  0  0  0 
M  END
>  <MOLREGNO>
444917

>  <CHEMBLID>
CHEMBL485818

>  <SYNONYMS>
Baicalin

>  <MAX_PHASE>
0

>  <MOLWEIGHT>
446.36

>  <ALOGP>
.61

>  <PSA>
183.21

>  <HBA>
11

>  <HBD>
6

>  <RO5>
2

>  <RTB>
4

>  <RO3>
N

>  <ACD_MOST_APKA>
2.72

>  <ACD_MOST_BPKA>


>  <ACD_LOGP>
1.43

>  <ACD_LOGD>
-3.2

>  <AROMATIC_RINGS>
2

>  <HEAVY_ATOMS>
32

>  <QED_WEIGHTED>
.36

>  <HBA_LIPINSKI>
11

>  <HBD_LIPINSKI>
6

>  <NUM_LIPINSKI_RO5_VIOLATIONS>
2

>  <MW_MONOISOTOPIC>
446.0849

>  <MOLECULAR_SPECIES>
ACID

>  <FULL_MOLFORMULA>
C21H18O11

$$$$

  Mrv0541 06041413192D          

 33 36  0  0  0  0            999 V2000
    2.3363   -5.0955    0.0000 O   0  0  0  0  0  0  0  0  0  0  0  0
    2.3474   -4.2706    0.0000 C   0  0  1  0  0  0  0  0  0  0  0  0
    1.6385   -3.8485    0.0000 C   0  0  2  0  0  0  0  0  0  0  0  0
    0.9185   -4.2514    0.0000 O   0  0  0  0  0  0  0  0  0  0  0  0
    1.6495   -3.0235    0.0000 C   0  0  1  0  0  0  0  0  0  0  0  0
    0.9407   -2.6015    0.0000 O   0  0  0  0  0  0  0  0  0  0  0  0
    2.3695   -2.6207    0.0000 C   0  0  2  0  0  0  0  0  0  0  0  0
    2.3806   -1.7958    0.0000 O   0  0  0  0  0  0  0  0  0  0  0  0
    3.0784   -3.0427    0.0000 C   0  0  2  0  0  0  0  0  0  0  0  0
    3.0673   -3.8677    0.0000 O   0  0  0  0  0  0  0  0  0  0  0  0
    3.7983   -2.6398    0.0000 C   0  0  0  0  0  0  0  0  0  0  0  0
    3.8094   -1.8149    0.0000 O   0  0  0  0  0  0  0  0  0  0  0  0
    4.5072   -3.0619    0.0000 O   0  0  0  0  0  0  0  0  0  0  0  0
    5.9077   -5.5121    0.0000 C   0  0  0  0  0  0  0  0  0  0  0  0
    5.9077   -6.3370    0.0000 C   0  0  0  0  0  0  0  0  0  0  0  0
    5.1931   -6.7496    0.0000 C   0  0  0  0  0  0  0  0  0  0  0  0
    5.1931   -7.5746    0.0000 O   0  0  0  0  0  0  0  0  0  0  0  0
    4.4786   -6.3370    0.0000 C   0  0  0  0  0  0  0  0  0  0  0  0
    3.7642   -6.7496    0.0000 C   0  0  0  0  0  0  0  0  0  0  0  0
    3.0497   -6.3370    0.0000 C   0  0  0  0  0  0  0  0  0  0  0  0
    3.0497   -5.5121    0.0000 C   0  0  0  0  0  0  0  0  0  0  0  0
    3.7642   -5.0995    0.0000 C   0  0  0  0  0  0  0  0  0  0  0  0
    4.4786   -5.5121    0.0000 C   0  0  0  0  0  0  0  0  0  0  0  0
    5.1931   -5.0995    0.0000 O   0  0  0  0  0  0  0  0  0  0  0  0
    6.6221   -5.0995    0.0000 C   0  0  0  0  0  0  0  0  0  0  0  0
    6.6221   -4.2745    0.0000 C   0  0  0  0  0  0  0  0  0  0  0  0
    7.3366   -3.8620    0.0000 C   0  0  0  0  0  0  0  0  0  0  0  0
    8.0510   -4.2745    0.0000 C   0  0  0  0  0  0  0  0  0  0  0  0
    8.0510   -5.0995    0.0000 C   0  0  0  0  0  0  0  0  0  0  0  0
    7.3366   -5.5121    0.0000 C   0  0  0  0  0  0  0  0  0  0  0  0
    8.7656   -3.8620    0.0000 O   0  0  0  0  0  0  0  0  0  0  0  0
    2.3352   -6.7496    0.0000 O   0  0  0  0  0  0  0  0  0  0  0  0
    3.7642   -7.5746    0.0000 O   0  0  0  0  0  0  0  0  0  0  0  0
  2  1  1  1  0  0  0
  2  3  1  0  0  0  0
  3  4  1  6  0  0  0
  3  5  1  0  0  0  0
  5  6  1  1  0  0  0
  5  7  1  0  0  0  0
  7  8  1  6  0  0  0
  7  9  1  0  0  0  0
  9 10  1  0  0  0  0
  9 11  1  1  0  0  0
  2 10  1  0  0  0  0
 11 12  2  0  0  0  0
 11 13  1  0  0  0  0
 14 15  2  0  0  0  0
 15 16  1  0  0  0  0
 16 17  2  0  0  0  0
 16 18  1  0  0  0  0
 18 19  1  0  0  0  0
 19 20  2  0  0  0  0
 20 21  1  0  0  0  0
 21 22  2  0  0  0  0
 22 23  1  0  0  0  0
 18 23  2  0  0  0  0
 23 24  1  0  0  0  0
 14 24  1  0  0  0  0
 14 25  1  0  0  0  0
 25 26  1  0  0  0  0
 26 27  2  0  0  0  0
 27 28  1  0  0  0  0
 28 29  2  0  0  0  0
 29 30  1  0  0  0  0
 25 30  2  0  0  0  0
 28 31  1  0  0  0  0
 21  1  1  0  0  0  0
 20 32  1  0  0  0  0
 19 33  1  0  0  0  0
M  END
>  <MOLREGNO>
445943

>  <CHEMBLID>
CHEMBL487805

>  <SYNONYMS>
Scutellarin

>  <MAX_PHASE>
0

>  <MOLWEIGHT>
462.36

>  <ALOGP>
.37

>  <PSA>
203.43

>  <HBA>
12

>  <HBD>
7

>  <RO5>
2

>  <RTB>
4

>  <RO3>
N

>  <ACD_MOST_APKA>
-3.64

>  <ACD_MOST_BPKA>
8.15

>  <ACD_LOGP>
.2

>  <ACD_LOGD>
-2.77

>  <AROMATIC_RINGS>
2

>  <HEAVY_ATOMS>
33

>  <QED_WEIGHTED>
.31

>  <HBA_LIPINSKI>
12

>  <HBD_LIPINSKI>
7

>  <NUM_LIPINSKI_RO5_VIOLATIONS>
2

>  <MW_MONOISOTOPIC>
462.0798

>  <MOLECULAR_SPECIES>
ACID

>  <FULL_MOLFORMULA>
C21H18O12

$$$$

  SciTegic01161211212D

 20 22  0  0  0  0            999 V2000
   14.2000   -0.8667    0.0000 C   0  0
   14.9208   -1.2792    0.0000 C   0  0
   13.4833   -1.2792    0.0000 C   0  0
   14.2000   -0.0375    0.0000 C   0  0
   15.6375   -0.8625    0.0000 C   0  0
   15.6375   -0.0292    0.0000 C   0  0
   14.9125    0.3833    0.0000 O   0  0
   12.7708   -0.8667    0.0000 C   0  0
   13.4833    0.3708    0.0000 C   0  0
   12.7708   -0.0417    0.0000 C   0  0
   14.9250   -2.1042    0.0000 O   0  0
   16.3500    0.3833    0.0000 C   0  0
   13.4750   -2.1042    0.0000 O   0  0
   12.0583   -1.2792    0.0000 O   0  0
   12.0583    0.3708    0.0000 O   0  0
   16.3458    1.2083    0.0000 C   0  0
   17.0625   -0.0292    0.0000 C   0  0
   17.7750    0.3833    0.0000 C   0  0
   17.0500    1.6208    0.0000 C   0  0
   17.7750    1.2083    0.0000 C   0  0
  2  1  1  0
  3  1  2  0
  4  1  1  0
  5  2  1  0
  6  7  1  0
  7  4  1  0
  8  3  1  0
  9  4  2  0
 10  9  1  0
 11  2  2  0
 12  6  1  0
 13  3  1  0
 14  8  1  0
 15 10  1  0
 16 12  1  0
 17 12  2  0
 18 17  1  0
 19 16  2  0
 20 18  2  0
  8 10  2  0
  5  6  2  0
 19 20  1  0
M  END
>  <MOLREGNO>
3665

>  <CHEMBLID>
CHEMBL8260

>  <SYNONYMS>
5,6,7-TRIHYDROXYFLAVONE | BAICALEIN

>  <MAX_PHASE>
0

>  <MOLWEIGHT>
270.24

>  <ALOGP>
2.41

>  <PSA>
86.99

>  <HBA>
5

>  <HBD>
3

>  <RO5>
0

>  <RTB>
1

>  <RO3>
N

>  <ACD_MOST_APKA>
6.31

>  <ACD_MOST_BPKA>


>  <ACD_LOGP>
3.64

>  <ACD_LOGD>
2.21

>  <AROMATIC_RINGS>
2

>  <HEAVY_ATOMS>
20

>  <QED_WEIGHTED>
.69

>  <HBA_LIPINSKI>
5

>  <HBD_LIPINSKI>
3

>  <NUM_LIPINSKI_RO5_VIOLATIONS>
0

>  <MW_MONOISOTOPIC>
270.0528

>  <MOLECULAR_SPECIES>
ACID

>  <FULL_MOLFORMULA>
C15H10O5

$$$$

  CDK    9/16/09,9:57

 21 23  0  0  0  0  0  0  0  0999 V2000
   -1.8553  -20.6505    0.0000 C   0  0  0  0  0  0  0  0  0  0  0  0
   -1.8553  -21.4763    0.0000 C   0  0  0  0  0  0  0  0  0  0  0  0
   -2.5661  -21.8870    0.0000 C   0  0  0  0  0  0  0  0  0  0  0  0
   -2.5661  -22.7129    0.0000 O   0  0  0  0  0  0  0  0  0  0  0  0
   -3.2817  -21.4763    0.0000 C   0  0  0  0  0  0  0  0  0  0  0  0
   -3.9926  -21.8870    0.0000 C   0  0  0  0  0  0  0  0  0  0  0  0
   -4.7081  -21.4763    0.0000 C   0  0  0  0  0  0  0  0  0  0  0  0
   -4.7081  -20.6505    0.0000 C   0  0  0  0  0  0  0  0  0  0  0  0
   -3.9926  -20.2399    0.0000 C   0  0  0  0  0  0  0  0  0  0  0  0
   -3.2817  -20.6505    0.0000 C   0  0  0  0  0  0  0  0  0  0  0  0
   -2.5661  -20.2399    0.0000 O   0  0  0  0  0  0  0  0  0  0  0  0
   -1.1398  -20.2399    0.0000 C   0  0  0  0  0  0  0  0  0  0  0  0
   -1.1398  -19.4140    0.0000 C   0  0  0  0  0  0  0  0  0  0  0  0
   -0.4288  -19.0033    0.0000 C   0  0  0  0  0  0  0  0  0  0  0  0
    0.2867  -19.4140    0.0000 C   0  0  0  0  0  0  0  0  0  0  0  0
    0.2867  -20.2399    0.0000 C   0  0  0  0  0  0  0  0  0  0  0  0
   -0.4288  -20.6505    0.0000 C   0  0  0  0  0  0  0  0  0  0  0  0
   -3.9915  -22.7083    0.0000 O   0  0  0  0  0  0  0  0  0  0  0  0
   -5.4188  -20.2389    0.0000 O   0  0  0  0  0  0  0  0  0  0  0  0
   -3.9915  -19.4186    0.0000 O   0  0  0  0  0  0  0  0  0  0  0  0
   -3.2796  -19.0089    0.0000 C   0  0  0  0  0  0  0  0  0  0  0  0
  3  5  1  0  0  0  0 
  5  6  1  0  0  0  0 
  6  7  2  0  0  0  0 
  7  8  1  0  0  0  0 
  8  9  2  0  0  0  0 
  9 10  1  0  0  0  0 
  5 10  2  0  0  0  0 
 10 11  1  0  0  0  0 
  1 11  1  0  0  0  0 
  1 12  1  0  0  0  0 
 12 13  1  0  0  0  0 
 13 14  2  0  0  0  0 
 14 15  1  0  0  0  0 
 15 16  2  0  0  0  0 
 16 17  1  0  0  0  0 
 12 17  2  0  0  0  0 
  6 18  1  0  0  0  0 
  1  2  2  0  0  0  0 
  8 19  1  0  0  0  0 
  2  3  1  0  0  0  0 
  9 20  1  0  0  0  0 
  3  4  2  0  0  0  0 
 20 21  1  0  0  0  0 
M  END
>  <MOLREGNO>
17852

>  <CHEMBLID>
CHEMBL16171

>  <SYNONYMS>
Wogonin

>  <MAX_PHASE>
0

>  <MOLWEIGHT>
284.26

>  <ALOGP>
2.64

>  <PSA>
75.99

>  <HBA>
5

>  <HBD>
2

>  <RO5>
0

>  <RTB>
2

>  <RO3>
N

>  <ACD_MOST_APKA>
6.83

>  <ACD_MOST_BPKA>


>  <ACD_LOGP>
2.24

>  <ACD_LOGD>
1.32

>  <AROMATIC_RINGS>
2

>  <HEAVY_ATOMS>
21

>  <QED_WEIGHTED>
.89

>  <HBA_LIPINSKI>
5

>  <HBD_LIPINSKI>
2

>  <NUM_LIPINSKI_RO5_VIOLATIONS>
0

>  <MW_MONOISOTOPIC>
284.0685

>  <MOLECULAR_SPECIES>
NEUTRAL

>  <FULL_MOLFORMULA>
C16H12O5

$$$$

  CDK    9/16/09,9:21
 
 15 16  0  0  0  0  0  0  0  0999 V2000
   -1.0717   -0.4125    0.0000 O   0  0  0  0  0  0  0  0  0  0  0  0
   -1.7862    0.0000    0.0000 C   0  0  0  0  0  0  0  0  0  0  0  0
   -2.5006   -0.4125    0.0000 O   0  0  0  0  0  0  0  0  0  0  0  0
   -1.7862    0.8250    0.0000 C   0  0  0  0  0  0  0  0  0  0  0  0
   -1.0717    1.2375    0.0000 C   0  0  0  0  0  0  0  0  0  0  0  0
   -0.3572    0.8250    0.0000 C   0  0  0  0  0  0  0  0  0  0  0  0
    0.3572    1.2375    0.0000 C   0  0  0  0  0  0  0  0  0  0  0  0
    1.0717    0.8250    0.0000 C   0  0  0  0  0  0  0  0  0  0  0  0
    1.0717    0.0000    0.0000 C   0  0  0  0  0  0  0  0  0  0  0  0
    0.3572   -0.4125    0.0000 C   0  0  0  0  0  0  0  0  0  0  0  0
   -0.3572    0.0000    0.0000 C   0  0  0  0  0  0  0  0  0  0  0  0
    1.7862    1.2375    0.0000 O   0  0  0  0  0  0  0  0  0  0  0  0
    2.5006    0.8250    0.0000 C   0  0  0  0  0  0  0  0  0  0  0  0
    0.3572   -1.2375    0.0000 O   0  0  0  0  0  0  0  0  0  0  0  0
    1.7862   -0.4125    0.0000 O   0  0  0  0  0  0  0  0  0  0  0  0
  1  2  1  0  0  0  0 
  2  3  2  0  0  0  0 
  2  4  1  0  0  0  0 
  4  5  2  0  0  0  0 
  5  6  1  0  0  0  0 
  6  7  1  0  0  0  0 
  7  8  2  0  0  0  0 
  8  9  1  0  0  0  0 
  9 10  2  0  0  0  0 
 10 11  1  0  0  0  0 
  1 11  1  0  0  0  0 
  6 11  2  0  0  0  0 
 12 13  1  0  0  0  0 
  8 12  1  0  0  0  0 
 10 14  1  0  0  0  0 
  9 15  1  0  0  0  0 
M  END
>  <MOLREGNO>
81827

>  <CHEMBLID>
CHEMBL54909

>  <SYNONYMS>
Fraxetin

>  <MAX_PHASE>
0

>  <MOLWEIGHT>
208.17

>  <ALOGP>
1.4

>  <PSA>
75.99

>  <HBA>
5

>  <HBD>
2

>  <RO5>
0

>  <RTB>
1

>  <RO3>
N

>  <ACD_MOST_APKA>
7.22

>  <ACD_MOST_BPKA>


>  <ACD_LOGP>
.98

>  <ACD_LOGD>
.5

>  <AROMATIC_RINGS>
1

>  <HEAVY_ATOMS>
15

>  <QED_WEIGHTED>
.41

>  <HBA_LIPINSKI>
5

>  <HBD_LIPINSKI>
2

>  <NUM_LIPINSKI_RO5_VIOLATIONS>
0

>  <MW_MONOISOTOPIC>
208.0372

>  <MOLECULAR_SPECIES>
NEUTRAL

>  <FULL_MOLFORMULA>
C10H8O5

$$$$

  SciTegic03251510122D

 22 25  0  0  1  0            999 V2000
   -3.7016   -3.5278    0.0000 O   0  0  0  0  0  0  0  0  0  0  0  0
   -2.4140   -1.5806    0.0000 N   0  0  0  0  0  0  0  0  0  0  0  0
    1.4657    0.6322    0.0000 N   0  0  0  0  0  0  0  0  0  0  0  0
    0.1437    0.0000    0.0000 C   0  0  2  0  0  0  0  0  0  0  0  0
   -1.0921    0.6322    0.0000 C   0  0  1  0  0  0  0  0  0  0  0  0
   -2.4140    0.0000    0.0000 C   0  0  1  0  0  0  0  0  0  0  0  0
    0.1437   -1.5806    0.0000 C   0  0  2  0  0  0  0  0  0  0  0  0
   -1.0921   -2.3278    0.0000 C   0  0  0  0  0  0  0  0  0  0  0  0
   -1.0921    2.1266    0.0000 C   0  0  0  0  0  0  0  0  0  0  0  0
    1.4657   -2.3278    0.0000 C   0  0  0  0  0  0  0  0  0  0  0  0
   -3.7072    0.6322    0.0000 C   0  0  0  0  0  0  0  0  0  0  0  0
   -3.7072   -2.3278    0.0000 C   0  0  0  0  0  0  0  0  0  0  0  0
    1.4657    2.1266    0.0000 C   0  0  0  0  0  0  0  0  0  0  0  0
    2.7876    0.0000    0.0000 C   0  0  0  0  0  0  0  0  0  0  0  0
    0.1437    2.8738    0.0000 C   0  0  0  0  0  0  0  0  0  0  0  0
    2.8164   -1.5806    0.0000 C   0  0  0  0  0  0  0  0  0  0  0  0
   -5.0292    0.0000    0.0000 C   0  0  0  0  0  0  0  0  0  0  0  0
   -5.0292   -1.5806    0.0000 C   0  0  0  0  0  0  0  0  0  0  0  0
    0.1584   -2.5805    0.0000 H   0  0  0  0  0  0  0  0  0  0  0  0
   -2.4097    1.0000    0.0000 H   0  0  0  0  0  0  0  0  0  0  0  0
   -1.9381    1.1654    0.0000 H   0  0  0  0  0  0  0  0  0  0  0  0
    0.1571    0.9999    0.0000 H   0  0  0  0  0  0  0  0  0  0  0  0
  1 12  2  0  0  0  0
  2  6  1  0  0  0  0
  8  2  1  0  0  0  0
  2 12  1  0  0  0  0
  4  3  1  0  0  0  0
 13  3  1  0  0  0  0
  3 14  1  0  0  0  0
  4  5  1  0  0  0  0
  7  4  1  0  0  0  0
  6  5  1  0  0  0  0
  5  9  1  0  0  0  0
  6 11  1  0  0  0  0
  7  8  1  0  0  0  0
 10  7  1  0  0  0  0
  9 15  1  0  0  0  0
 16 10  1  0  0  0  0
 17 11  1  0  0  0  0
 12 18  1  0  0  0  0
 15 13  1  0  0  0  0
 14 16  1  0  0  0  0
 18 17  2  0  0  0  0
  7 19  1  6  0  0  0
  6 20  1  1  0  0  0
  5 21  1  6  0  0  0
  4 22  1  6  0  0  0
M  END
>  <MOLREGNO>
340766

>  <CHEMBLID>
CHEMBL377725

>  <SYNONYMS>
Sophocarpine

>  <MAX_PHASE>
0

>  <MOLWEIGHT>
246.35

>  <ALOGP>
1.39

>  <PSA>
23.55

>  <HBA>
2

>  <HBD>
0

>  <RO5>
0

>  <RTB>
0

>  <RO3>
Y

>  <ACD_MOST_APKA>
13.08

>  <ACD_MOST_BPKA>
.69

>  <ACD_LOGP>
6.61

>  <ACD_LOGD>
6.61

>  <AROMATIC_RINGS>
0

>  <HEAVY_ATOMS>
18

>  <QED_WEIGHTED>
.65

>  <HBA_LIPINSKI>
3

>  <HBD_LIPINSKI>
0

>  <NUM_LIPINSKI_RO5_VIOLATIONS>
0

>  <MW_MONOISOTOPIC>
246.1732

>  <MOLECULAR_SPECIES>
NEUTRAL

>  <FULL_MOLFORMULA>
C15H22N2O

$$$$

  SciTegic12231509382D

 22 24  0  0  0  0            999 V2000
   -0.9743    0.5250    0.0000 C   0  0
   -0.9743    1.3500    0.0000 C   0  0
   -1.6887    1.7625    0.0000 C   0  0
   -2.4032    1.3500    0.0000 C   0  0
   -2.4032    0.5250    0.0000 C   0  0
   -1.6887    0.1125    0.0000 C   0  0
   -0.2598    0.1125    0.0000 C   0  0
    2.5981    0.1125    0.0000 C   0  0
    2.5981   -0.7125    0.0000 C   0  0
    1.8836   -1.1250    0.0000 C   0  0
    1.8836    0.5250    0.0000 C   0  0
    1.1691    0.1125    0.0000 C   0  0
    1.1691   -0.7125    0.0000 C   0  0
    0.4547   -1.1250    0.0000 C   0  0
   -0.2598   -0.7125    0.0000 C   0  0
    0.4547    0.5250    0.0000 O   0  0
    0.4547   -1.9500    0.0000 O   0  0
   -3.1177    1.7625    0.0000 O   0  0
    3.3125    0.5250    0.0000 O   0  0
    1.8836   -1.9500    0.0000 O   0  0
   -0.9743   -1.1250    0.0000 O   0  0
   -3.1177    0.1125    0.0000 O   0  0
 11  8  1  0
 12 13  1  0
  5  6  2  0
  6  1  1  0
  1  2  2  0
  3  4  2  0
 12 16  1  0
 13 14  1  0
 14 15  1  0
 15  7  2  0
  7 16  1  0
  8  9  2  0
 14 17  2  0
  7  1  1  0
  4  5  1  0
  4 18  1  0
  9 10  1  0
  8 19  1  0
 10 13  2  0
 10 20  1  0
  2  3  1  0
 15 21  1  0
 12 11  2  0
  5 22  1  0
M  END
>  <MOLREGNO>
3666

>  <CHEMBLID>
CHEMBL50

>  <SYNONYMS>
Sophoretin | C.I. Natural Red 1 | Xanthaurine | Meletin | Quercetin Dihydrate | NSC-9219

>  <MAX_PHASE>
0

>  <MOLWEIGHT>
302.24

>  <ALOGP>
1.63

>  <PSA>
127.45

>  <HBA>
7

>  <HBD>
5

>  <RO5>
0

>  <RTB>
1

>  <RO3>
N

>  <ACD_MOST_APKA>
6.31

>  <ACD_MOST_BPKA>


>  <ACD_LOGP>
1.99

>  <ACD_LOGD>
.63

>  <AROMATIC_RINGS>
2

>  <HEAVY_ATOMS>
22

>  <QED_WEIGHTED>
.51

>  <HBA_LIPINSKI>
7

>  <HBD_LIPINSKI>
5

>  <NUM_LIPINSKI_RO5_VIOLATIONS>
0

>  <MW_MONOISOTOPIC>
302.0427

>  <MOLECULAR_SPECIES>
ACID

>  <FULL_MOLFORMULA>
C15H10O7

$$$$

  SciTegic12231509382D

 43 47  0  0  1  0            999 V2000
    0.1994    2.5517    0.0000 O   0  0
   -1.2296    0.9017    0.0000 O   0  0
   -0.5151   -0.3358    0.0000 O   0  0
    0.1994    0.0767    0.0000 O   0  0
    1.6283    0.0767    0.0000 O   0  0
    0.1994   -2.3983    0.0000 O   0  0
   -2.6585    0.0767    0.0000 O   0  0
    0.9139   -3.6358    0.0000 O   0  0
   -2.6585   -1.5733    0.0000 O   0  0
   -1.2296   -2.3983    0.0000 O   0  0
    3.0573    2.5517    0.0000 O   0  0
   -3.3730    2.1392    0.0000 O   0  0
    1.6283   -1.5733    0.0000 O   0  0
   -3.3730    3.7892    0.0000 O   0  0
    3.0573   -2.3983    0.0000 O   0  0
    3.0573   -4.0483    0.0000 O   0  0
   -0.5151    1.3142    0.0000 C   0  0
    0.9139    1.3142    0.0000 C   0  0
   -0.5151    2.1392    0.0000 C   0  0
    0.1994    0.9017    0.0000 C   0  0
    0.9139    2.1392    0.0000 C   0  0
   -1.2296    0.0767    0.0000 C   0  0  2  0  0  0
   -1.2296    2.5517    0.0000 C   0  0
    1.6283    0.9017    0.0000 C   0  0
   -1.9440   -0.3358    0.0000 C   0  0  1  0  0  0
    1.6283    2.5517    0.0000 C   0  0
   -0.5151   -1.1608    0.0000 C   0  0  1  0  0  0
   -1.9440   -1.1608    0.0000 C   0  0  2  0  0  0
   -1.2296   -1.5733    0.0000 C   0  0  2  0  0  0
    2.3428    2.1392    0.0000 C   0  0
    2.3428    1.3142    0.0000 C   0  0
   -1.9440    2.1392    0.0000 C   0  0
   -1.2296    3.3767    0.0000 C   0  0
    0.1994   -1.5733    0.0000 C   0  0
   -2.6585    2.5517    0.0000 C   0  0
    0.9139   -2.8108    0.0000 C   0  0  2  0  0  0
    1.6283   -2.3983    0.0000 C   0  0  1  0  0  0
   -2.6585    3.3767    0.0000 C   0  0
   -1.9440    3.7892    0.0000 C   0  0
    2.3428   -2.8108    0.0000 C   0  0  1  0  0  0
    2.3428   -3.6358    0.0000 C   0  0  2  0  0  0
    1.6283   -4.0483    0.0000 C   0  0  2  0  0  0
    1.6283   -4.8733    0.0000 C   0  0
  1 19  1  0
  1 21  1  0
  2 17  1  0
 22  2  1  6
  3 22  1  0
  3 27  1  0
  4 20  2  0
  5 24  1  0
  6 34  1  0
 36  6  1  1
 25  7  1  1
  8 36  1  0
  8 42  1  0
 28  9  1  6
 29 10  1  1
 11 30  1  0
 12 35  1  0
 37 13  1  6
 14 38  1  0
 40 15  1  6
 41 16  1  1
 17 19  2  0
 17 20  1  0
 18 20  1  0
 18 21  1  0
 18 24  2  0
 19 23  1  0
 21 26  2  0
 22 25  1  0
 23 32  1  0
 23 33  2  0
 24 31  1  0
 25 28  1  0
 26 30  1  0
 27 29  1  0
 27 34  1  6
 28 29  1  0
 30 31  2  0
 32 35  2  0
 33 39  1  0
 35 38  1  0
 36 37  1  0
 37 40  1  0
 38 39  2  0
 40 41  1  0
 41 42  1  0
 42 43  1  6
M  END
>  <MOLREGNO>
378065

>  <CHEMBLID>
CHEMBL226335

>  <SYNONYMS>
NSC-115918 | NSC-9220 | RUTIN | RUTOSIDE

>  <MAX_PHASE>
2

>  <MOLWEIGHT>
610.52

>  <ALOGP>
-1.16

>  <PSA>
265.52

>  <HBA>
16

>  <HBD>
10

>  <RO5>
3

>  <RTB>
6

>  <RO3>
N

>  <ACD_MOST_APKA>


>  <ACD_MOST_BPKA>


>  <ACD_LOGP>
6.3

>  <ACD_LOGD>
6.3

>  <AROMATIC_RINGS>
2

>  <HEAVY_ATOMS>
43

>  <QED_WEIGHTED>
.17

>  <HBA_LIPINSKI>
16

>  <HBD_LIPINSKI>
10

>  <NUM_LIPINSKI_RO5_VIOLATIONS>
2

>  <MW_MONOISOTOPIC>
610.1534

>  <MOLECULAR_SPECIES>
NEUTRAL

>  <FULL_MOLFORMULA>
C27H30O16

$$$$

  CDK    6/4/10,11:42

 41 45  0  0  0  0  0  0  0  0999 V2000
   -2.7951    0.8157    0.0000 C   0  0  0  0  0  0  0  0  0  0  0  0
   -2.7969   -0.0127    0.0000 C   0  0  0  0  0  0  0  0  0  0  0  0
   -2.0807   -0.4256    0.0000 C   0  0  0  0  0  0  0  0  0  0  0  0
   -2.0835    1.2285    0.0000 C   0  0  0  0  0  0  0  0  0  0  0  0
   -1.3664    0.8171    0.0000 C   0  0  0  0  0  0  0  0  0  0  0  0
   -1.3682   -0.0158    0.0000 C   0  0  0  0  0  0  0  0  0  0  0  0
   -0.6531   -0.4324    0.0000 O   0  0  0  0  0  0  0  0  0  0  0  0
    0.0709   -0.0189    0.0000 C   0  0  0  0  0  0  0  0  0  0  0  0
    0.0727    0.8139    0.0000 C   0  0  0  0  0  0  0  0  0  0  0  0
   -0.6494    1.2333    0.0000 C   0  0  0  0  0  0  0  0  0  0  0  0
   -0.6494    2.0580    0.0000 O   0  0  0  0  0  0  0  0  0  0  0  0
    0.7789   -0.4299    0.0000 C   0  0  0  0  0  0  0  0  0  0  0  0
    0.7775   -1.2563    0.0000 C   0  0  0  0  0  0  0  0  0  0  0  0
    1.4901   -1.6716    0.0000 C   0  0  0  0  0  0  0  0  0  0  0  0
    2.2048   -1.2622    0.0000 C   0  0  0  0  0  0  0  0  0  0  0  0
    2.2044   -0.4310    0.0000 C   0  0  0  0  0  0  0  0  0  0  0  0
    1.4908   -0.0214    0.0000 C   0  0  0  0  0  0  0  0  0  0  0  0
   -3.5089   -0.4242    0.0000 O   0  0  0  0  0  0  0  0  0  0  0  0
   -3.5099   -1.2489    0.0000 C   0  0  0  0  0  0  0  0  0  0  0  0
   -4.2251   -1.6591    0.0000 C   0  0  0  0  0  0  0  0  0  0  0  0
   -4.2291   -2.4826    0.0000 C   0  0  0  0  0  0  0  0  0  0  0  0
   -3.5167   -2.8975    0.0000 C   0  0  0  0  0  0  0  0  0  0  0  0
   -2.7978   -2.4879    0.0000 C   0  0  0  0  0  0  0  0  0  0  0  0
   -2.7954   -1.6591    0.0000 O   0  0  0  0  0  0  0  0  0  0  0  0
   -2.0848   -2.9048    0.0000 C   0  0  0  0  0  0  0  0  0  0  0  0
   -2.0900   -3.7295    0.0000 O   0  0  0  0  0  0  0  0  0  0  0  0
   -1.3770   -4.1423    0.0000 C   0  0  0  0  0  0  0  0  0  0  0  0
   -1.3870   -4.9675    0.0000 C   0  0  0  0  0  0  0  0  0  0  0  0
   -0.6802   -5.3843    0.0000 C   0  0  0  0  0  0  0  0  0  0  0  0
    0.0376   -4.9776    0.0000 C   0  0  0  0  0  0  0  0  0  0  0  0
    0.0458   -4.1514    0.0000 C   0  0  0  0  0  0  0  0  0  0  0  0
   -0.6678   -3.7318    0.0000 O   0  0  0  0  0  0  0  0  0  0  0  0
    0.7621   -3.7472    0.0000 C   0  0  0  0  0  0  0  0  0  0  0  0
    2.9196   -1.6762    0.0000 O   0  0  0  0  0  0  0  0  0  0  0  0
   -2.0830    2.0532    0.0000 O   0  0  0  0  0  0  0  0  0  0  0  0
   -4.9394   -1.2484    0.0000 O   0  0  0  0  0  0  0  0  0  0  0  0
   -4.9434   -2.8900    0.0000 O   0  0  0  0  0  0  0  0  0  0  0  0
   -3.5183   -3.7222    0.0000 O   0  0  0  0  0  0  0  0  0  0  0  0
   -2.1041   -5.3743    0.0000 O   0  0  0  0  0  0  0  0  0  0  0  0
   -0.6860   -6.2089    0.0000 O   0  0  0  0  0  0  0  0  0  0  0  0
    0.7524   -5.3944    0.0000 O   0  0  0  0  0  0  0  0  0  0  0  0
  6  7  1  0  0  0  0 
  7  8  1  0  0  0  0 
  8  9  1  0  0  0  0 
  9 10  1  0  0  0  0 
 10 11  2  0  0  0  0 
 12 13  2  0  0  0  0 
 13 14  1  0  0  0  0 
 14 15  2  0  0  0  0 
 15 16  1  0  0  0  0 
 16 17  2  0  0  0  0 
 17 12  1  0  0  0  0 
  8 12  1  1  0  0  0 
  2 18  1  0  0  0  0 
 19 18  1  6  0  0  0 
 19 20  1  0  0  0  0 
 19 24  1  0  0  0  0 
 20 21  1  0  0  0  0 
 21 22  1  0  0  0  0 
 22 23  1  0  0  0  0 
 23 24  1  0  0  0  0 
 23 25  1  6  0  0  0 
 25 26  1  0  0  0  0 
 27 26  1  6  0  0  0 
 27 28  1  0  0  0  0 
 27 32  1  0  0  0  0 
 28 29  1  0  0  0  0 
 29 30  1  0  0  0  0 
 30 31  1  0  0  0  0 
 31 32  1  0  0  0  0 
 31 33  1  1  0  0  0 
  1  2  2  0  0  0  0 
  2  3  1  0  0  0  0 
  3  6  2  0  0  0  0 
  5  4  2  0  0  0  0 
  4  1  1  0  0  0  0 
  5  6  1  0  0  0  0 
  5 10  1  0  0  0  0 
 21 37  1  6  0  0  0 
  4 35  1  0  0  0  0 
 22 38  1  1  0  0  0 
 15 34  1  0  0  0  0 
 28 39  1  1  0  0  0 
 20 36  1  1  0  0  0 
 29 40  1  1  0  0  0 
 30 41  1  6  0  0  0 
M  END
>  <MOLREGNO>
442831

>  <CHEMBLID>
CHEMBL446246

>  <SYNONYMS>
Narirutin

>  <MAX_PHASE>
0

>  <MOLWEIGHT>
580.53

>  <ALOGP>
-.42

>  <PSA>
225.05

>  <HBA>
14

>  <HBD>
8

>  <RO5>
3

>  <RTB>
6

>  <RO3>
N

>  <ACD_MOST_APKA>
7.18

>  <ACD_MOST_BPKA>


>  <ACD_LOGP>
-.52

>  <ACD_LOGD>
-.95

>  <AROMATIC_RINGS>
2

>  <HEAVY_ATOMS>
41

>  <QED_WEIGHTED>
.22

>  <HBA_LIPINSKI>
14

>  <HBD_LIPINSKI>
8

>  <NUM_LIPINSKI_RO5_VIOLATIONS>
2

>  <MW_MONOISOTOPIC>
580.1792

>  <MOLECULAR_SPECIES>
NEUTRAL

>  <FULL_MOLFORMULA>
C27H32O14

$$$$

  CDK    9/16/09,9:19

 42 46  0  0  0  0  0  0  0  0999 V2000
    0.3152   -1.6248    0.0000 C   0  0  0  0  0  0  0  0  0  0  0  0
    0.3141   -2.4520    0.0000 C   0  0  0  0  0  0  0  0  0  0  0  0
    1.0288   -2.8649    0.0000 C   0  0  0  0  0  0  0  0  0  0  0  0
    1.0270   -1.2121    0.0000 C   0  0  0  0  0  0  0  0  0  0  0  0
    1.7423   -1.6211    0.0000 C   0  0  0  0  0  0  0  0  0  0  0  0
    1.7411   -2.4495    0.0000 C   0  0  0  0  0  0  0  0  0  0  0  0
    2.4540   -2.8625    0.0000 C   0  0  0  0  0  0  0  0  0  0  0  0
    3.1726   -2.4515    0.0000 C   0  0  0  0  0  0  0  0  0  0  0  0
    3.1738   -1.6231    0.0000 C   0  0  0  0  0  0  0  0  0  0  0  0
    2.4563   -1.2057    0.0000 O   0  0  0  0  0  0  0  0  0  0  0  0
    2.4516   -3.6874    0.0000 O   0  0  0  0  0  0  0  0  0  0  0  0
    3.8873   -1.2154    0.0000 C   0  0  0  0  0  0  0  0  0  0  0  0
    4.6010   -1.6313    0.0000 C   0  0  0  0  0  0  0  0  0  0  0  0
    5.3159   -1.2213    0.0000 C   0  0  0  0  0  0  0  0  0  0  0  0
    5.3184   -0.3955    0.0000 C   0  0  0  0  0  0  0  0  0  0  0  0
    4.5999    0.0185    0.0000 C   0  0  0  0  0  0  0  0  0  0  0  0
    3.8880   -0.3939    0.0000 C   0  0  0  0  0  0  0  0  0  0  0  0
    6.0332    0.0162    0.0000 O   0  0  0  0  0  0  0  0  0  0  0  0
    1.0305   -3.6898    0.0000 O   0  0  0  0  0  0  0  0  0  0  0  0
   -0.3993   -1.2125    0.0000 O   0  0  0  0  0  0  0  0  0  0  0  0
   -1.1136   -1.6251    0.0000 C   0  0  0  0  0  0  0  0  0  0  0  0
   -1.8322   -1.2097    0.0000 C   0  0  0  0  0  0  0  0  0  0  0  0
   -2.5444   -1.6188    0.0000 C   0  0  0  0  0  0  0  0  0  0  0  0
   -2.5484   -2.4440    0.0000 C   0  0  0  0  0  0  0  0  0  0  0  0
   -1.8341   -2.8585    0.0000 C   0  0  0  0  0  0  0  0  0  0  0  0
   -1.1158   -2.4477    0.0000 O   0  0  0  0  0  0  0  0  0  0  0  0
   -1.8367   -3.6834    0.0000 C   0  0  0  0  0  0  0  0  0  0  0  0
   -2.5524   -4.0937    0.0000 O   0  0  0  0  0  0  0  0  0  0  0  0
   -3.2644   -2.8540    0.0000 O   0  0  0  0  0  0  0  0  0  0  0  0
   -3.2574   -1.2038    0.0000 O   0  0  0  0  0  0  0  0  0  0  0  0
   -1.8311   -0.3848    0.0000 O   0  0  0  0  0  0  0  0  0  0  0  0
   -2.5449    0.0287    0.0000 C   0  0  0  0  0  0  0  0  0  0  0  0
   -2.5457    0.8586    0.0000 O   0  0  0  0  0  0  0  0  0  0  0  0
   -3.2555    1.2719    0.0000 C   0  0  0  0  0  0  0  0  0  0  0  0
   -3.9729    0.8639    0.0000 C   0  0  0  0  0  0  0  0  0  0  0  0
   -3.9760    0.0381    0.0000 C   0  0  0  0  0  0  0  0  0  0  0  0
   -3.2617   -0.3799    0.0000 C   0  0  0  0  0  0  0  0  0  0  0  0
   -1.8331    0.4458    0.0000 H   0  0  0  0  0  0  0  0  0  0  0  0
   -3.2513    2.0968    0.0000 C   0  0  0  0  0  0  0  0  0  0  0  0
   -4.6923   -0.3710    0.0000 O   0  0  0  0  0  0  0  0  0  0  0  0
   -4.6851    1.2801    0.0000 O   0  0  0  0  0  0  0  0  0  0  0  0
   -3.8496   -0.9624    0.0000 O   0  0  0  0  0  0  0  0  0  0  0  0
  1 20  1  0  0  0  0 
  8  9  1  0  0  0  0 
 21 20  1  6  0  0  0 
 21 22  1  0  0  0  0 
  9 10  1  0  0  0  0 
  5  6  1  0  0  0  0 
  7 11  2  0  0  0  0 
  2  3  1  0  0  0  0 
 21 26  1  0  0  0  0 
 22 23  1  0  0  0  0 
 23 24  1  0  0  0  0 
 24 25  1  0  0  0  0 
 25 26  1  0  0  0  0 
 12 13  2  0  0  0  0 
 25 27  1  6  0  0  0 
  3  6  2  0  0  0  0 
 27 28  1  0  0  0  0 
 13 14  1  0  0  0  0 
 24 29  1  1  0  0  0 
  1  2  2  0  0  0  0 
 23 30  1  6  0  0  0 
 14 15  2  0  0  0  0 
 22 31  1  1  0  0  0 
  5  4  2  0  0  0  0 
 31 32  1  0  0  0  0 
 32 33  1  0  0  0  0 
 15 16  1  0  0  0  0 
  4  1  1  0  0  0  0 
 16 17  2  0  0  0  0 
 17 12  1  0  0  0  0 
  9 12  1  6  0  0  0 
 32 37  1  0  0  0  0 
 33 34  1  0  0  0  0 
 34 35  1  0  0  0  0 
 35 36  1  0  0  0  0 
 36 37  1  0  0  0  0 
  5 10  1  0  0  0  0 
 32 38  1  6  0  0  0 
 15 18  1  0  0  0  0 
 34 39  1  6  0  0  0 
  6  7  1  0  0  0  0 
 36 40  1  6  0  0  0 
  3 19  1  0  0  0  0 
 35 41  1  1  0  0  0 
  7  8  1  0  0  0  0 
 37 42  1  6  0  0  0 
M  END
>  <MOLREGNO>
443445

>  <CHEMBLID>
CHEMBL451532

>  <SYNONYMS>
Naringin

>  <MAX_PHASE>
0

>  <MOLWEIGHT>
580.53

>  <ALOGP>
-.42

>  <PSA>
225.05

>  <HBA>
14

>  <HBD>
8

>  <RO5>
3

>  <RTB>
6

>  <RO3>
N

>  <ACD_MOST_APKA>
7.17

>  <ACD_MOST_BPKA>


>  <ACD_LOGP>
-.2

>  <ACD_LOGD>
-.63

>  <AROMATIC_RINGS>
2

>  <HEAVY_ATOMS>
41

>  <QED_WEIGHTED>
.22

>  <HBA_LIPINSKI>
14

>  <HBD_LIPINSKI>
8

>  <NUM_LIPINSKI_RO5_VIOLATIONS>
2

>  <MW_MONOISOTOPIC>
580.1792

>  <MOLECULAR_SPECIES>
NEUTRAL

>  <FULL_MOLFORMULA>
C27H32O14

$$$$

  Mrv0541 04051115152D          

 20 22  0  0  0  0            999 V2000
   -1.6778    0.4707    0.0000 C   0  0  0  0  0  0  0  0  0  0  0  0
   -2.3922    0.0582    0.0000 C   0  0  0  0  0  0  0  0  0  0  0  0
   -2.3922   -0.7668    0.0000 C   0  0  0  0  0  0  0  0  0  0  0  0
   -1.6778   -1.1793    0.0000 C   0  0  0  0  0  0  0  0  0  0  0  0
   -0.9633   -0.7668    0.0000 C   0  0  0  0  0  0  0  0  0  0  0  0
   -0.9633    0.0582    0.0000 C   0  0  0  0  0  0  0  0  0  0  0  0
   -0.2488   -1.1793    0.0000 C   0  0  0  0  0  0  0  0  0  0  0  0
    0.4656   -0.7668    0.0000 C   0  0  0  0  0  0  0  0  0  0  0  0
    0.4656    0.0582    0.0000 C   0  0  2  0  0  0  0  0  0  0  0  0
   -0.2488    0.4707    0.0000 O   0  0  0  0  0  0  0  0  0  0  0  0
   -0.2488   -2.0043    0.0000 O   0  0  0  0  0  0  0  0  0  0  0  0
    1.1801    0.4707    0.0000 C   0  0  0  0  0  0  0  0  0  0  0  0
    1.1801    1.2957    0.0000 C   0  0  0  0  0  0  0  0  0  0  0  0
    1.8946    1.7082    0.0000 C   0  0  0  0  0  0  0  0  0  0  0  0
    2.6091    1.2957    0.0000 C   0  0  0  0  0  0  0  0  0  0  0  0
    2.6091    0.4707    0.0000 C   0  0  0  0  0  0  0  0  0  0  0  0
    1.8946    0.0582    0.0000 C   0  0  0  0  0  0  0  0  0  0  0  0
    3.3235    1.7082    0.0000 O   0  0  0  0  0  0  0  0  0  0  0  0
   -3.1067    0.4707    0.0000 O   0  0  0  0  0  0  0  0  0  0  0  0
   -1.6778   -2.0043    0.0000 O   0  0  0  0  0  0  0  0  0  0  0  0
  1  2  2  0  0  0  0
  1  6  1  0  0  0  0
  2  3  1  0  0  0  0
  2 19  1  0  0  0  0
  3  4  2  0  0  0  0
  4  5  1  0  0  0  0
  4 20  1  0  0  0  0
  5  6  2  0  0  0  0
  5  7  1  0  0  0  0
  6 10  1  0  0  0  0
  7  8  1  0  0  0  0
  7 11  2  0  0  0  0
  8  9  1  0  0  0  0
  9 10  1  0  0  0  0
  9 12  1  6  0  0  0
 12 13  1  0  0  0  0
 12 17  2  0  0  0  0
 13 14  2  0  0  0  0
 14 15  1  0  0  0  0
 15 16  2  0  0  0  0
 15 18  1  0  0  0  0
 16 17  1  0  0  0  0
M  END
>  <MOLREGNO>
5170

>  <CHEMBLID>
CHEMBL9352

>  <SYNONYMS>
NSC-11855

>  <MAX_PHASE>
0

>  <MOLWEIGHT>
272.25

>  <ALOGP>
2.37

>  <PSA>
86.99

>  <HBA>
5

>  <HBD>
3

>  <RO5>
0

>  <RTB>
1

>  <RO3>
N

>  <ACD_MOST_APKA>
7.52

>  <ACD_MOST_BPKA>


>  <ACD_LOGP>
2.63

>  <ACD_LOGD>
2.23

>  <AROMATIC_RINGS>
2

>  <HEAVY_ATOMS>
20

>  <QED_WEIGHTED>
.74

>  <HBA_LIPINSKI>
5

>  <HBD_LIPINSKI>
3

>  <NUM_LIPINSKI_RO5_VIOLATIONS>
0

>  <MW_MONOISOTOPIC>
272.0685

>  <MOLECULAR_SPECIES>
NEUTRAL

>  <FULL_MOLFORMULA>
C15H12O5

$$$$

  SciTegic12231509382D

 25 28  0  0  0  0            999 V2000
   14.1026  -15.1478    0.0000 C   0  0
   14.1026  -15.9756    0.0000 C   0  0
   15.5315  -15.9756    0.0000 C   0  0
   14.8175  -16.3827    0.0000 C   0  0
   14.8141  -17.2026    0.0000 C   0  0
   15.5237  -17.6164    0.0000 C   0  0
   16.2385  -17.2044    0.0000 C   0  0
   16.2384  -16.3858    0.0000 C   0  0
   14.8170  -14.7297    0.0000 N   0  3
   15.5297  -15.1509    0.0000 C   0  0
   16.2467  -14.7464    0.0000 C   0  0
   14.8214  -13.9042    0.0000 C   0  0
   15.5447  -13.4982    0.0000 C   0  0
   16.2558  -13.9204    0.0000 C   0  0
   16.9730  -13.5180    0.0000 C   0  0
   16.9855  -12.6917    0.0000 C   0  0
   16.2744  -12.2694    0.0000 C   0  0
   15.5509  -12.6735    0.0000 C   0  0
   14.8385  -12.2517    0.0000 O   0  0
   16.2854  -11.4416    0.0000 O   0  0
   17.0077  -11.0373    0.0000 C   0  0
   14.1171  -12.6578    0.0000 C   0  0
   16.9553  -17.6185    0.0000 O   0  0
   15.5217  -18.4443    0.0000 O   0  0
   14.8038  -18.8564    0.0000 C   0  0
 10 11  1  0
 11 14  2  0
 13 12  2  0
 13 14  1  0
  4  5  1  0
  1  9  1  0
  5  6  2  0
  2  4  1  0
  6  7  1  0
  3 10  1  0
 13 18  1  0
 14 15  1  0
 15 16  2  0
 16 17  1  0
 17 18  2  0
  7  8  2  0
 18 19  1  0
  8  3  1  0
 17 20  1  0
  9 10  2  0
 20 21  1  0
  1  2  1  0
 19 22  1  0
  7 23  1  0
  3  4  2  0
  6 24  1  0
 24 25  1  0
  9 12  1  0
M  CHG  1   9   1
M  END
>  <MOLREGNO>
421120

>  <CHEMBLID>
CHEMBL400345

>  <SYNONYMS>
Columbamine Chloride | Columbamine | Columbamine Iodide

>  <MAX_PHASE>
0

>  <MOLWEIGHT>
338.38

>  <ALOGP>
3.94

>  <PSA>
51.8

>  <HBA>
4

>  <HBD>
1

>  <RO5>
0

>  <RTB>
3

>  <RO3>
N

>  <ACD_MOST_APKA>
13.68

>  <ACD_MOST_BPKA>
9.19

>  <ACD_LOGP>
3.38

>  <ACD_LOGD>
1.53

>  <AROMATIC_RINGS>
3

>  <HEAVY_ATOMS>
25

>  <QED_WEIGHTED>
.74

>  <HBA_LIPINSKI>
5

>  <HBD_LIPINSKI>
1

>  <NUM_LIPINSKI_RO5_VIOLATIONS>
0

>  <MW_MONOISOTOPIC>
338.1392

>  <MOLECULAR_SPECIES>
BASE

>  <FULL_MOLFORMULA>
C20H20NO4

$$$$

  SciTegic12231509382D

 25 29  0  0  0  0            999 V2000
    3.8230    1.2158    0.0000 O   0  0
    3.1380    0.0700    0.0000 O   0  0
    9.2933   -0.9097    0.0000 O   0  0
   10.1400    0.5065    0.0000 O   0  0
    6.8186   -0.8720    0.0000 N   0  3
    6.4170   -0.1514    0.0000 C   0  0
    5.5921   -0.1388    0.0000 C   0  0
    5.1688   -0.8469    0.0000 C   0  0
    8.0668   -0.1765    0.0000 C   0  0
    7.6652    0.5442    0.0000 C   0  0
    6.8403    0.5567    0.0000 C   0  0
    7.6435   -0.8846    0.0000 C   0  0
    4.3656    0.5944    0.0000 C   0  0
    5.1905    0.5818    0.0000 C   0  0
    8.8917   -0.1890    0.0000 C   0  0
    3.9423   -0.1137    0.0000 C   0  0
    4.3439   -0.8344    0.0000 C   0  0
    6.3953   -1.5802    0.0000 C   0  0
    5.5704   -1.5676    0.0000 C   0  0
    9.3150    0.5191    0.0000 C   0  0
    8.0886    1.2523    0.0000 C   0  0
    8.9135    1.2398    0.0000 C   0  0
    3.0643    0.8917    0.0000 C   0  0
   10.1182   -0.9222    0.0000 C   0  0
   10.5633    1.2147    0.0000 C   0  0
  1 13  1  0
  1 23  1  0
  2 16  1  0
  2 23  1  0
  3 15  1  0
  3 24  1  0
  4 20  1  0
  4 25  1  0
  5  6  1  0
  5 12  2  0
  5 18  1  0
  6  7  1  0
  6 11  2  0
  7  8  2  0
  7 14  1  0
  8 17  1  0
  8 19  1  0
  9 10  2  0
  9 12  1  0
  9 15  1  0
 10 11  1  0
 10 21  1  0
 13 14  2  0
 13 16  1  0
 15 20  2  0
 16 17  2  0
 18 19  1  0
 20 22  1  0
 21 22  2  0
M  CHG  1   5   1
M  END
>  <MOLREGNO>
66831

>  <CHEMBLID>
CHEMBL295124

>  <SYNONYMS>
GNF-Pf-4545 | BERBERINE CHLORIDE | BERBERINE SULFATE | BERBERINE

>  <MAX_PHASE>
1

>  <MOLWEIGHT>
336.36

>  <ALOGP>
3.96

>  <PSA>
40.8

>  <HBA>
4

>  <HBD>
0

>  <RO5>
0

>  <RTB>
2

>  <RO3>
N

>  <ACD_MOST_APKA>


>  <ACD_MOST_BPKA>
4.78

>  <ACD_LOGP>
3.28

>  <ACD_LOGD>
3.28

>  <AROMATIC_RINGS>
3

>  <HEAVY_ATOMS>
25

>  <QED_WEIGHTED>
.66

>  <HBA_LIPINSKI>
5

>  <HBD_LIPINSKI>
0

>  <NUM_LIPINSKI_RO5_VIOLATIONS>
0

>  <MW_MONOISOTOPIC>
336.1236

>  <MOLECULAR_SPECIES>
NEUTRAL

>  <FULL_MOLFORMULA>
C20H18NO4

$$$$

          08180812472D 1   1.00000     0.00000     0

 36 41  0     1  0            999 V2000
    5.3790  -21.3784    0.0000 C   0  0  0  0  0  0           0  0  0
    6.0915  -20.9614    0.0000 C   0  0  0  0  0  0           0  0  0
    6.8041  -21.3784    0.0000 C   0  0  1  0  0  0           0  0  0
    8.2272  -22.2100    0.0000 C   0  0  0  0  0  0           0  0  0
    8.2307  -21.3845    0.0000 O   0  0  0  0  0  0           0  0  0
    7.5169  -20.9663    0.0000 C   0  0  1  0  0  0           0  0  0
    6.0915  -22.6126    0.0000 C   0  0  2  0  0  0           0  0  0
    5.3790  -22.2040    0.0000 C   0  0  1  0  0  0           0  0  0
    5.3854  -23.8439    0.0000 C   0  0  0  0  0  0           0  0  0
    6.0978  -23.4317    0.0000 C   0  0  0  0  0  0           0  0  0
    4.6759  -22.6158    0.0000 C   0  0  2  0  0  0           0  0  0
    4.6729  -23.4353    0.0000 C   0  0  2  0  0  0           0  0  0
    4.0276  -23.9496    0.0000 C   0  0  3  0  0  0           0  0  0
    4.0313  -22.1005    0.0000 C   0  0  0  0  0  0           0  0  0
    3.2256  -23.7696    0.0000 O   0  0  0  0  0  0           0  0  0
    3.2273  -22.2840    0.0000 C   0  0  0  0  0  0           0  0  0
    2.8716  -23.0275    0.0000 C   0  0  0  0  0  0           0  0  0
    4.6702  -21.7870    0.0000 C   0  0  0  0  0  0           0  0  0
    2.0460  -23.0270    0.0000 O   0  0  0  0  0  0           0  0  0
    3.6069  -24.6600    0.0000 C   0  0  0  0  0  0           0  0  0
    4.6076  -24.5307    0.0000 C   0  0  0  0  0  0           0  0  0
    6.8147  -23.8415    0.0000 O   0  0  0  0  0  0           0  0  0
    6.0837  -21.7870    0.0000 C   0  0  0  0  0  0           0  0  0
    7.5099  -22.6175    0.0000 C   0  0  2  0  0  0           0  0  0
    6.8020  -22.2100    0.0000 C   0  0  1  0  0  0           0  0  0
    6.8031  -23.0268    0.0000 O   0  0  0  0  0  0           0  0  0
    8.9398  -22.6269    0.0000 O   0  0  0  0  0  0           0  0  0
    7.5056  -23.4424    0.0000 H   0  0  0  0  0  0           0  0  0
    7.5193  -20.1408    0.0000 C   0  0  0  0  0  0           0  0  0
    8.1870  -19.6575    0.0000 C   0  0  0  0  0  0           0  0  0
    7.9341  -18.8715    0.0000 O   0  0  0  0  0  0           0  0  0
    7.1085  -18.8691    0.0000 C   0  0  0  0  0  0           0  0  0
    6.8512  -19.6536    0.0000 C   0  0  0  0  0  0           0  0  0
    6.7967  -20.5528    0.0000 C   0  0  0  0  0  0           0  0  0
    4.8828  -24.2305    0.0000 H   0  0  0  0  0  0           0  0  0
    5.3748  -23.0296    0.0000 H   0  0  0  0  0  0           0  0  0
  7  8  1  0     0  0
 15 17  1  0     0  0
 16 17  1  0     0  0
  3  2  1  0     0  0
 11 18  1  1     0  0
  3 25  1  0     0  0
 17 19  2  0     0  0
 13 20  1  0     0  0
  1  8  1  0     0  0
 13 21  1  0     0  0
  7 10  1  0     0  0
 10 22  2  0     0  0
  8 11  1  0     0  0
  7 23  1  1     0  0
 25 24  1  0     0  0
 25 26  1  1     0  0
 24 26  1  0     0  0
 12  9  1  0     0  0
  9 10  1  0     0  0
  1  2  1  0     0  0
  7 25  1  0     0  0
  4 27  2  0     0  0
 11 12  1  0     0  0
 24 28  1  6     0  0
  3  6  1  0     0  0
  6 29  1  6     0  0
 29 30  2  0     0  0
 12 13  1  0     0  0
 24  4  1  0     0  0
 11 14  1  0     0  0
  4  5  1  0     0  0
 30 31  1  0     0  0
 31 32  1  0     0  0
 32 33  2  0     0  0
 33 29  1  0     0  0
 13 15  1  0     0  0
  3 34  1  6     0  0
  5  6  1  0     0  0
 12 35  1  6     0  0
 14 16  2  0     0  0
  8 36  1  6     0  0
M  END
>  <MOLREGNO>
425183

>  <CHEMBLID>
CHEMBL404140

>  <SYNONYMS>
Obacunone

>  <MAX_PHASE>
0

>  <MOLWEIGHT>
454.51

>  <ALOGP>
2.72

>  <PSA>
95.33

>  <HBA>
6

>  <HBD>
0

>  <RO5>
0

>  <RTB>
1

>  <RO3>
N

>  <ACD_MOST_APKA>


>  <ACD_MOST_BPKA>


>  <ACD_LOGP>
2.13

>  <ACD_LOGD>
2.13

>  <AROMATIC_RINGS>
1

>  <HEAVY_ATOMS>
33

>  <QED_WEIGHTED>
.61

>  <HBA_LIPINSKI>
7

>  <HBD_LIPINSKI>
0

>  <NUM_LIPINSKI_RO5_VIOLATIONS>
0

>  <MW_MONOISOTOPIC>
454.1992

>  <MOLECULAR_SPECIES>


>  <FULL_MOLFORMULA>
C26H30O7

$$$$

  SciTegic12231509382D

 24 29  0  0  0  0            999 V2000
    9.7960   -2.6370    0.0000 C   0  0
    9.7112   -1.8160    0.0000 O   0  0
    8.9064   -1.6438    0.0000 C   0  0
    8.4946   -0.9290    0.0000 C   0  0
    7.6708   -0.9290    0.0000 C   0  0
    7.2589   -0.2184    0.0000 C   0  0
    6.4351   -0.2184    0.0000 C   0  0
    6.0233   -0.9290    0.0000 N   0  3
    5.1954   -0.9290    0.0000 C   0  0
    4.7835   -1.6438    0.0000 C   0  0
    5.1954   -2.3587    0.0000 C   0  0
    4.7835   -3.0734    0.0000 C   0  0
    3.9598   -3.0734    0.0000 C   0  0
    3.5479   -2.3587    0.0000 C   0  0
    2.7430   -2.1865    0.0000 O   0  0
    2.6583   -1.3655    0.0000 C   0  0
    3.4075   -1.0325    0.0000 O   0  0
    3.9598   -1.6438    0.0000 C   0  0
    6.0233   -2.3587    0.0000 C   0  0
    6.4351   -1.6438    0.0000 C   0  0
    7.2589   -1.6438    0.0000 C   0  0
    7.6708   -2.3587    0.0000 C   0  0
    8.4946   -2.3587    0.0000 C   0  0
    9.0426   -2.9699    0.0000 O   0  0
  1  2  1  0
  2  3  1  0
  3  4  1  0
  4  5  2  0
  5  6  1  0
  6  7  1  0
  7  8  1  0
  8  9  2  0
  9 10  1  0
 10 11  1  0
 11 12  2  0
 12 13  1  0
 13 14  2  0
 14 15  1  0
 15 16  1  0
 16 17  1  0
 17 18  1  0
 10 18  2  0
 14 18  1  0
 11 19  1  0
 19 20  2  0
  8 20  1  0
 20 21  1  0
  5 21  1  0
 21 22  2  0
 22 23  1  0
  3 23  2  0
 23 24  1  0
  1 24  1  0
M  CHG  1   8   1
M  END
>  <MOLREGNO>
297451

>  <CHEMBLID>
CHEMBL362071

>  <SYNONYMS>
Coptisine | Coptisine Chloride | Coptisine Picrate

>  <MAX_PHASE>
0

>  <MOLWEIGHT>
320.32

>  <ALOGP>
3.76

>  <PSA>
40.79

>  <HBA>
4

>  <HBD>
0

>  <RO5>
0

>  <RTB>
0

>  <RO3>
N

>  <ACD_MOST_APKA>
11.9

>  <ACD_MOST_BPKA>
.92

>  <ACD_LOGP>
4.41

>  <ACD_LOGD>
4.41

>  <AROMATIC_RINGS>
3

>  <HEAVY_ATOMS>
24

>  <QED_WEIGHTED>
.59

>  <HBA_LIPINSKI>
5

>  <HBD_LIPINSKI>
0

>  <NUM_LIPINSKI_RO5_VIOLATIONS>
0

>  <MW_MONOISOTOPIC>
320.0923

>  <MOLECULAR_SPECIES>
NEUTRAL

>  <FULL_MOLFORMULA>
C19H14NO4

$$$$

  CDK    9/16/09,9:20

 38 42  0  0  0  0  0  0  0  0999 V2000
   -1.7692  -26.3309    0.0000 C   0  0  0  0  0  0  0  0  0  0  0  0
   -3.1989  -25.5071    0.0000 C   0  0  0  0  0  0  0  0  0  0  0  0
   -2.4821  -25.0952    0.0000 C   0  0  0  0  0  0  0  0  0  0  0  0
   -1.7692  -25.5071    0.0000 O   0  0  0  0  0  0  0  0  0  0  0  0
   -2.4812  -26.7453    0.0000 C   0  0  0  0  0  0  0  0  0  0  0  0
   -3.1989  -26.3309    0.0000 C   0  0  0  0  0  0  0  0  0  0  0  0
   -3.8136  -26.8853    0.0000 C   0  0  0  0  0  0  0  0  0  0  0  0
   -2.6548  -27.5537    0.0000 C   0  0  0  0  0  0  0  0  0  0  0  0
   -3.4759  -27.6419    0.0000 C   0  0  0  0  0  0  0  0  0  0  0  0
   -2.9889  -28.3046    0.0000 O   0  0  0  0  0  0  0  0  0  0  0  0
   -1.8311  -27.5481    0.0000 C   0  0  0  0  0  0  0  0  0  0  0  0
   -1.4185  -28.2602    0.0000 O   0  0  0  0  0  0  0  0  0  0  0  0
   -4.6185  -26.7135    0.0000 O   0  0  0  0  0  0  0  0  0  0  0  0
   -1.0541  -26.7422    0.0000 O   0  0  0  0  0  0  0  0  0  0  0  0
   -0.3396  -26.3296    0.0000 C   0  0  0  0  0  0  0  0  0  0  0  0
    0.3709  -26.7443    0.0000 O   0  0  0  0  0  0  0  0  0  0  0  0
    1.0820  -26.3370    0.0000 C   0  0  0  0  0  0  0  0  0  0  0  0
    1.0877  -25.5127    0.0000 C   0  0  0  0  0  0  0  0  0  0  0  0
    0.3728  -25.0981    0.0000 C   0  0  0  0  0  0  0  0  0  0  0  0
   -0.3437  -25.5079    0.0000 C   0  0  0  0  0  0  0  0  0  0  0  0
   -1.0583  -25.0957    0.0000 O   0  0  0  0  0  0  0  0  0  0  0  0
    1.8004  -25.1042    0.0000 O   0  0  0  0  0  0  0  0  0  0  0  0
    0.3762  -24.2743    0.0000 O   0  0  0  0  0  0  0  0  0  0  0  0
    1.7949  -26.7523    0.0000 C   0  0  0  0  0  0  0  0  0  0  0  0
    2.5116  -26.3397    0.0000 O   0  0  0  0  0  0  0  0  0  0  0  0
   -4.3003  -27.6348    0.0000 H   0  0  0  0  0  0  0  0  0  0  0  0
    3.2203  -26.7550    0.0000 C   0  0  0  0  0  0  0  0  0  0  0  0
    3.9371  -26.3466    0.0000 C   0  0  0  0  0  0  0  0  0  0  0  0
    4.6500  -26.7577    0.0000 C   0  0  0  0  0  0  0  0  0  0  0  0
    5.3625  -26.3493    0.0000 C   0  0  0  0  0  0  0  0  0  0  0  0
    3.2205  -27.5788    0.0000 O   0  0  0  0  0  0  0  0  0  0  0  0
    6.0715  -26.7687    0.0000 C   0  0  0  0  0  0  0  0  0  0  0  0
    6.7875  -26.3571    0.0000 C   0  0  0  0  0  0  0  0  0  0  0  0
    6.7921  -25.5320    0.0000 C   0  0  0  0  0  0  0  0  0  0  0  0
    6.0717  -25.1210    0.0000 C   0  0  0  0  0  0  0  0  0  0  0  0
    5.3601  -25.5321    0.0000 C   0  0  0  0  0  0  0  0  0  0  0  0
   -3.9158  -25.9175    0.0000 H   0  0  0  0  0  0  0  0  0  0  0  0
   -1.7719  -27.1532    0.0000 H   0  0  0  0  0  0  0  0  0  0  0  0
  1  5  1  0  0  0  0 
  6  2  1  0  0  0  0 
  2  3  2  0  0  0  0 
  3  4  1  0  0  0  0 
  1  4  1  0  0  0  0 
  5  6  1  0  0  0  0 
  6  7  1  0  0  0  0 
  7  9  1  0  0  0  0 
  8  5  1  0  0  0  0 
  9  8  1  0  0  0  0 
 10  9  1  0  0  0  0 
  8 10  1  0  0  0  0 
  8 11  1  6  0  0  0 
 11 12  1  0  0  0  0 
  7 13  1  1  0  0  0 
  1 14  1  1  0  0  0 
 15 14  1  1  0  0  0 
 15 16  1  0  0  0  0 
 15 20  1  0  0  0  0 
 16 17  1  0  0  0  0 
 17 18  1  0  0  0  0 
 18 19  1  0  0  0  0 
 19 20  1  0  0  0  0 
 20 21  1  6  0  0  0 
 18 22  1  6  0  0  0 
 19 23  1  1  0  0  0 
 17 24  1  1  0  0  0 
 24 25  1  0  0  0  0 
  9 26  1  6  0  0  0 
 25 27  1  0  0  0  0 
 27 28  1  0  0  0  0 
 28 29  2  0  0  0  0 
 29 30  1  0  0  0  0 
 27 31  2  0  0  0  0 
 30 32  2  0  0  0  0 
 32 33  1  0  0  0  0 
 33 34  2  0  0  0  0 
 34 35  1  0  0  0  0 
 35 36  2  0  0  0  0 
 36 30  1  0  0  0  0 
  6 37  1  1  0  0  0 
  5 38  1  1  0  0  0 
M  END
>  <MOLREGNO>
443993

>  <CHEMBLID>
CHEMBL454577

>  <SYNONYMS>
Picroside I

>  <MAX_PHASE>
0

>  <MOLWEIGHT>
492.47

>  <ALOGP>
-1.07

>  <PSA>
167.67

>  <HBA>
11

>  <HBD>
5

>  <RO5>
1

>  <RTB>
8

>  <RO3>
N

>  <ACD_MOST_APKA>
12.7

>  <ACD_MOST_BPKA>


>  <ACD_LOGP>
-1.01

>  <ACD_LOGD>
-1.01

>  <AROMATIC_RINGS>
1

>  <HEAVY_ATOMS>
35

>  <QED_WEIGHTED>
.22

>  <HBA_LIPINSKI>
11

>  <HBD_LIPINSKI>
5

>  <NUM_LIPINSKI_RO5_VIOLATIONS>
1

>  <MW_MONOISOTOPIC>
492.1632

>  <MOLECULAR_SPECIES>
NEUTRAL

>  <FULL_MOLFORMULA>
C24H28O11

$$$$

  CDK    9/16/09,9:20

 39 43  0  0  0  0  0  0  0  0999 V2000
   15.0728  -26.0991    0.0000 C   0  0  0  0  0  0  0  0  0  0  0  0
   13.6419  -25.2746    0.0000 C   0  0  0  0  0  0  0  0  0  0  0  0
   14.3595  -24.8623    0.0000 C   0  0  0  0  0  0  0  0  0  0  0  0
   15.0728  -25.2746    0.0000 O   0  0  0  0  0  0  0  0  0  0  0  0
   14.3604  -26.5137    0.0000 C   0  0  0  0  0  0  0  0  0  0  0  0
   13.6419  -26.0991    0.0000 C   0  0  0  0  0  0  0  0  0  0  0  0
   13.0267  -26.6538    0.0000 C   0  0  0  0  0  0  0  0  0  0  0  0
   14.1866  -27.3228    0.0000 C   0  0  0  0  0  0  0  0  0  0  0  0
   13.3648  -27.4110    0.0000 C   0  0  0  0  0  0  0  0  0  0  0  0
   13.8522  -28.0744    0.0000 O   0  0  0  0  0  0  0  0  0  0  0  0
   15.0109  -27.3173    0.0000 C   0  0  0  0  0  0  0  0  0  0  0  0
   15.4239  -28.0298    0.0000 O   0  0  0  0  0  0  0  0  0  0  0  0
   12.2211  -26.4819    0.0000 O   0  0  0  0  0  0  0  0  0  0  0  0
   15.7887  -26.5106    0.0000 O   0  0  0  0  0  0  0  0  0  0  0  0
   16.5037  -26.0978    0.0000 C   0  0  0  0  0  0  0  0  0  0  0  0
   17.2147  -26.5127    0.0000 O   0  0  0  0  0  0  0  0  0  0  0  0
   17.9265  -26.1051    0.0000 C   0  0  0  0  0  0  0  0  0  0  0  0
   17.9322  -25.2801    0.0000 C   0  0  0  0  0  0  0  0  0  0  0  0
   17.2167  -24.8652    0.0000 C   0  0  0  0  0  0  0  0  0  0  0  0
   16.4995  -25.2753    0.0000 C   0  0  0  0  0  0  0  0  0  0  0  0
   15.7843  -24.8627    0.0000 O   0  0  0  0  0  0  0  0  0  0  0  0
   18.6454  -24.8713    0.0000 O   0  0  0  0  0  0  0  0  0  0  0  0
   17.2202  -24.0408    0.0000 O   0  0  0  0  0  0  0  0  0  0  0  0
   18.6400  -26.5208    0.0000 C   0  0  0  0  0  0  0  0  0  0  0  0
   19.3573  -26.1078    0.0000 O   0  0  0  0  0  0  0  0  0  0  0  0
   12.5397  -27.4039    0.0000 H   0  0  0  0  0  0  0  0  0  0  0  0
   12.9244  -25.6852    0.0000 H   0  0  0  0  0  0  0  0  0  0  0  0
   15.0701  -26.9219    0.0000 H   0  0  0  0  0  0  0  0  0  0  0  0
   11.9671  -25.6975    0.0000 C   0  0  0  0  0  0  0  0  0  0  0  0
   11.1607  -25.5254    0.0000 C   0  0  0  0  0  0  0  0  0  0  0  0
   12.5192  -25.0853    0.0000 O   0  0  0  0  0  0  0  0  0  0  0  0
   10.9112  -24.7427    0.0000 C   0  0  0  0  0  0  0  0  0  0  0  0
   10.1057  -24.5704    0.0000 C   0  0  0  0  0  0  0  0  0  0  0  0
    9.5526  -25.1830    0.0000 C   0  0  0  0  0  0  0  0  0  0  0  0
    9.8105  -25.9706    0.0000 C   0  0  0  0  0  0  0  0  0  0  0  0
   10.6154  -26.1391    0.0000 C   0  0  0  0  0  0  0  0  0  0  0  0
    9.8520  -23.7860    0.0000 O   0  0  0  0  0  0  0  0  0  0  0  0
   10.4044  -23.1740    0.0000 C   0  0  0  0  0  0  0  0  0  0  0  0
    8.7460  -25.0120    0.0000 O   0  0  0  0  0  0  0  0  0  0  0  0
 10  9  1  0  0  0  0 
  8 10  1  0  0  0  0 
  8 11  1  6  0  0  0 
 11 12  1  0  0  0  0 
  7 13  1  1  0  0  0 
  1 14  1  1  0  0  0 
 15 14  1  1  0  0  0 
 15 16  1  0  0  0  0 
 15 20  1  0  0  0  0 
 16 17  1  0  0  0  0 
 17 18  1  0  0  0  0 
 18 19  1  0  0  0  0 
 19 20  1  0  0  0  0 
 20 21  1  6  0  0  0 
 18 22  1  6  0  0  0 
 19 23  1  1  0  0  0 
 17 24  1  1  0  0  0 
 24 25  1  0  0  0  0 
  9 26  1  6  0  0  0 
  6 27  1  1  0  0  0 
  5 28  1  1  0  0  0 
 13 29  1  0  0  0  0 
  1  5  1  0  0  0  0 
 29 30  1  0  0  0  0 
  6  2  1  0  0  0  0 
 29 31  2  0  0  0  0 
  2  3  2  0  0  0  0 
 30 32  2  0  0  0  0 
  3  4  1  0  0  0  0 
 32 33  1  0  0  0  0 
  1  4  1  0  0  0  0 
 33 34  2  0  0  0  0 
  5  6  1  0  0  0  0 
 34 35  1  0  0  0  0 
  6  7  1  0  0  0  0 
 35 36  2  0  0  0  0 
 36 30  1  0  0  0  0 
  7  9  1  0  0  0  0 
 33 37  1  0  0  0  0 
  8  5  1  0  0  0  0 
 37 38  1  0  0  0  0 
  9  8  1  0  0  0  0 
 34 39  1  0  0  0  0 
M  END
>  <MOLREGNO>
443994

>  <CHEMBLID>
CHEMBL510404

>  <SYNONYMS>
Picroside II

>  <MAX_PHASE>
0

>  <MOLWEIGHT>
512.46

>  <ALOGP>
-1.8

>  <PSA>
197.12

>  <HBA>
13

>  <HBD>
6

>  <RO5>
3

>  <RTB>
8

>  <RO3>
N

>  <ACD_MOST_APKA>
8.07

>  <ACD_MOST_BPKA>


>  <ACD_LOGP>
-1.95

>  <ACD_LOGD>
-2.03

>  <AROMATIC_RINGS>
1

>  <HEAVY_ATOMS>
36

>  <QED_WEIGHTED>
.21

>  <HBA_LIPINSKI>
13

>  <HBD_LIPINSKI>
6

>  <NUM_LIPINSKI_RO5_VIOLATIONS>
2

>  <MW_MONOISOTOPIC>
512.153

>  <MOLECULAR_SPECIES>
NEUTRAL

>  <FULL_MOLFORMULA>
C23H28O13

$$$$

  CDK    8/10/10,12:22

 28 33  0  0  0  0  0  0  0  0999 V2000
   11.8864   -4.6390    0.0000 C   0  0  0  0  0  0  0  0  0  0  0  0
   11.9510   -3.3053    0.0000 C   0  0  0  0  0  0  0  0  0  0  0  0
   11.4343   -3.9487    0.0000 O   0  0  0  0  0  0  0  0  0  0  0  0
   12.7226   -3.5979    0.0000 C   0  0  0  0  0  0  0  0  0  0  0  0
   12.6860   -4.4221    0.0000 C   0  0  0  0  0  0  0  0  0  0  0  0
   13.4585   -4.7117    0.0000 C   0  0  0  0  0  0  0  0  0  0  0  0
   13.9728   -4.0664    0.0000 O   0  0  0  0  0  0  0  0  0  0  0  0
   13.5178   -3.3782    0.0000 C   0  0  0  0  0  0  0  0  0  0  0  0
   11.5040   -5.3685    0.0000 C   0  0  0  0  0  0  0  0  0  0  0  0
   10.6779   -5.3984    0.0000 C   0  0  0  0  0  0  0  0  0  0  0  0
   11.5610   -6.7933    0.0000 C   0  0  0  0  0  0  0  0  0  0  0  0
   11.9428   -6.0638    0.0000 C   0  0  0  0  0  0  0  0  0  0  0  0
   10.7320   -6.8272    0.0000 C   0  0  0  0  0  0  0  0  0  0  0  0
   10.2916   -6.1321    0.0000 C   0  0  0  0  0  0  0  0  0  0  0  0
    9.4943   -6.3361    0.0000 O   0  0  0  0  0  0  0  0  0  0  0  0
    9.4420   -7.1574    0.0000 C   0  0  0  0  0  0  0  0  0  0  0  0
   10.2069   -7.4609    0.0000 O   0  0  0  0  0  0  0  0  0  0  0  0
   12.6783   -5.2448    0.0000 H   0  0  0  0  0  0  0  0  0  0  0  0
   12.7158   -2.7683    0.0000 H   0  0  0  0  0  0  0  0  0  0  0  0
   13.9249   -2.6599    0.0000 C   0  0  0  0  0  0  0  0  0  0  0  0
   14.7515   -2.6561    0.0000 C   0  0  0  0  0  0  0  0  0  0  0  0
   13.9101   -1.2353    0.0000 C   0  0  0  0  0  0  0  0  0  0  0  0
   13.5069   -1.9533    0.0000 C   0  0  0  0  0  0  0  0  0  0  0  0
   14.7400   -1.2260    0.0000 C   0  0  0  0  0  0  0  0  0  0  0  0
   15.1604   -1.9327    0.0000 C   0  0  0  0  0  0  0  0  0  0  0  0
   15.9624   -1.7514    0.0000 O   0  0  0  0  0  0  0  0  0  0  0  0
   16.0378   -0.9326    0.0000 C   0  0  0  0  0  0  0  0  0  0  0  0
   15.2823   -0.6079    0.0000 O   0  0  0  0  0  0  0  0  0  0  0  0
 13 14  2  0  0  0  0 
  2  3  1  0  0  0  0 
  3  1  1  0  0  0  0 
  5  6  1  0  0  0  0 
  6  7  1  0  0  0  0 
  7  8  1  0  0  0  0 
 14 15  1  0  0  0  0 
 15 16  1  0  0  0  0 
 16 17  1  0  0  0  0 
 17 13  1  0  0  0  0 
  8  4  1  0  0  0  0 
  5 18  1  1  0  0  0 
  4  5  1  0  0  0  0 
  4 19  1  1  0  0  0 
  1  5  1  0  0  0  0 
  8 20  1  1  0  0  0 
  9 10  2  0  0  0  0 
 20 21  2  0  0  0  0 
 21 25  1  0  0  0  0 
 10 14  1  0  0  0  0 
 24 22  1  0  0  0  0 
 22 23  2  0  0  0  0 
 23 20  1  0  0  0  0 
 24 25  2  0  0  0  0 
 13 11  1  0  0  0  0 
  4  2  1  0  0  0  0 
 11 12  2  0  0  0  0 
 12  9  1  0  0  0  0 
  1  9  1  1  0  0  0 
 25 26  1  0  0  0  0 
 26 27  1  0  0  0  0 
 27 28  1  0  0  0  0 
 28 24  1  0  0  0  0 
M  END
>  <MOLREGNO>
420135

>  <CHEMBLID>
CHEMBL252915

>  <SYNONYMS>
(-)-SESAMIN

>  <MAX_PHASE>
0

>  <MOLWEIGHT>
354.35

>  <ALOGP>
2.24

>  <PSA>
55.38

>  <HBA>
6

>  <HBD>
0

>  <RO5>
0

>  <RTB>
2

>  <RO3>
N

>  <ACD_MOST_APKA>


>  <ACD_MOST_BPKA>


>  <ACD_LOGP>
4.06

>  <ACD_LOGD>
4.06

>  <AROMATIC_RINGS>
2

>  <HEAVY_ATOMS>
26

>  <QED_WEIGHTED>
.82

>  <HBA_LIPINSKI>
6

>  <HBD_LIPINSKI>
0

>  <NUM_LIPINSKI_RO5_VIOLATIONS>
0

>  <MW_MONOISOTOPIC>
354.1103

>  <MOLECULAR_SPECIES>


>  <FULL_MOLFORMULA>
C20H18O6

$$$$

  SciTegic12231509382D

 36 36  0  0  1  0            999 V2000
    0.1500   -1.2500    0.0000 C   0  0  1  0  0  0
    0.1500   -1.9542    0.0000 C   0  0  1  0  0  0
    0.7542   -2.3125    0.0000 C   0  0  2  0  0  0
    1.3667   -1.9542    0.0000 C   0  0  1  0  0  0
    1.3667   -1.2500    0.0000 C   0  0  2  0  0  0
    0.7542   -0.8917    0.0000 C   0  0  1  0  0  0
    0.7750   -3.7250    0.0000 P   0  0
    0.7750    0.5208    0.0000 P   0  0
    2.5917   -2.6625    0.0000 P   0  0
   -1.0750   -2.6625    0.0000 P   0  0
   -1.0750   -0.5417    0.0000 P   0  0
    2.5917   -0.5417    0.0000 P   0  0
    0.7542   -3.0167    0.0000 O   0  0
   -0.4708   -2.3042    0.0000 O   0  0
    1.9875   -2.3042    0.0000 O   0  0
   -0.4708   -0.8917    0.0000 O   0  0
    1.9875   -0.8917    0.0000 O   0  0
    0.7542   -0.1875    0.0000 O   0  0
    0.0625   -3.7417    0.0000 O   0  0
   -1.4333    0.0750    0.0000 O   0  0
    3.2042   -2.3042    0.0000 O   0  0
    2.2417   -3.2792    0.0000 O   0  0
    3.2042   -0.8917    0.0000 O   0  0
    2.2417    0.0750    0.0000 O   0  0
   -1.6833   -2.3042    0.0000 O   0  0
    1.3917    0.8583    0.0000 O   0  0
    0.0625    0.5375    0.0000 O   0  0
   -1.4333   -3.2792    0.0000 O   0  0
   -1.6833   -0.8917    0.0000 O   0  0
    1.3917   -4.0542    0.0000 O   0  0
    0.4292    1.1375    0.0000 O   0  0
    2.9417   -3.2792    0.0000 O   0  0
    0.4292   -4.3417    0.0000 O   0  0
   -0.7250   -3.2792    0.0000 O   0  0
    2.9417    0.0750    0.0000 O   0  0
   -0.7250    0.0750    0.0000 O   0  0
  2  1  1  0
  3  2  1  0
  4  5  1  0
  5  6  1  0
  6  1  1  0
  7 13  1  0
  8 18  1  0
  9 15  1  0
 10 14  1  0
 11 16  1  0
 12 17  1  0
  3 13  1  6
  2 14  1  1
  4 15  1  1
  1 16  1  6
  5 17  1  6
  6 18  1  6
 19  7  1  0
 20 11  1  0
 21  9  1  0
 22  9  1  0
 23 12  1  0
 24 12  1  0
 25 10  1  0
 26  8  1  0
 27  8  1  0
 28 10  1  0
 29 11  1  0
 30  7  1  0
 31  8  2  0
 32  9  2  0
 33  7  2  0
 34 10  2  0
 35 12  2  0
 36 11  2  0
  4  3  1  0
M  END
>  <MOLREGNO>
695861

>  <CHEMBLID>
CHEMBL1233511

>  <SYNONYMS>
PHYTATE PERSODIUM | E391 | PHYTIC ACID | FYTIC ACID

>  <MAX_PHASE>
0

>  <MOLWEIGHT>
660.04

>  <ALOGP>
-3.49

>  <PSA>
459.42

>  <HBA>
24

>  <HBD>
12

>  <RO5>
3

>  <RTB>
12

>  <RO3>
N

>  <ACD_MOST_APKA>
1.56

>  <ACD_MOST_BPKA>


>  <ACD_LOGP>
-5.94

>  <ACD_LOGD>
-12.24

>  <AROMATIC_RINGS>
0

>  <HEAVY_ATOMS>
36

>  <QED_WEIGHTED>
.09

>  <HBA_LIPINSKI>
24

>  <HBD_LIPINSKI>
12

>  <NUM_LIPINSKI_RO5_VIOLATIONS>
2

>  <MW_MONOISOTOPIC>
659.8614

>  <MOLECULAR_SPECIES>
ACID

>  <FULL_MOLFORMULA>
C6H18O24P6

$$$$

  SciTegic09171211542D

 29 34  0  0  0  0            999 V2000
   -2.8907   -3.3564    0.0000 O   0  0
   -3.3755   -2.6889    0.0000 C   0  0
   -2.8905   -2.0215    0.0000 O   0  0
   -2.1059   -2.2766    0.0000 C   0  0
   -2.1061   -3.1016    0.0000 C   0  0
   -1.3914   -1.8642    0.0000 C   0  0
   -0.6770   -2.2768    0.0000 C   0  0
   -0.6771   -3.1018    0.0000 C   0  0
   -1.3916   -3.5142    0.0000 C   0  0
    0.7076   -2.3390    0.0000 O   0  0
    0.0354   -1.8607    0.0000 C   0  0  1  0  0  0
    0.2825   -1.0736    0.0000 C   0  0  2  0  0  0
    1.1075   -1.0654    0.0000 C   0  0  2  0  0  0
    1.3702   -1.8474    0.0000 C   0  0
    0.6823    0.2000    0.0000 O   0  0
    0.0198   -0.2916    0.0000 C   0  0
    1.3546   -0.2783    0.0000 C   0  0  2  0  0  0
    2.0662    0.1392    0.0000 O   0  0
    2.2149    3.4223    0.0000 O   0  0
    3.0347    3.5142    0.0000 C   0  0
    3.3755    2.7629    0.0000 O   0  0
    2.7663    2.2066    0.0000 C   0  0
    2.0490    2.6141    0.0000 C   0  0
    2.7720    1.3816    0.0000 C   0  0
    2.0604    0.9642    0.0000 C   0  0
    1.3431    1.3717    0.0000 C   0  0
    1.3374    2.1967    0.0000 C   0  0
    1.9325   -1.0654    0.0000 H   0  0
   -0.5425   -1.0736    0.0000 H   0  0
  1  2  1  0
  2  3  1  0
  3  4  1  0
  4  5  1  0
  1  5  1  0
  6  7  1  0
  7  8  2  0
  8  9  1  0
  5  9  2  0
  4  6  2  0
 10 11  1  0
 11 12  1  0
 12 13  1  0
 13 14  1  0
 10 14  1  0
 15 16  1  0
 15 17  1  0
 12 16  1  0
 13 17  1  0
 19 20  1  0
 20 21  1  0
 21 22  1  0
 22 23  1  0
 19 23  1  0
 24 25  1  0
 25 26  2  0
 26 27  1  0
 23 27  2  0
 22 24  2  0
 18 25  1  0
 17 18  1  6
 11  7  1  6
 13 28  1  6
 12 29  1  6
M  END
>  <MOLREGNO>
1355420

>  <CHEMBLID>
CHEMBL2059646

>  <SYNONYMS>
Sesamolin

>  <MAX_PHASE>
0

>  <MOLWEIGHT>
370.35

>  <ALOGP>
2.55

>  <PSA>
64.61

>  <HBA>
7

>  <HBD>
0

>  <RO5>
0

>  <RTB>
3

>  <RO3>
N

>  <ACD_MOST_APKA>
9.94

>  <ACD_MOST_BPKA>
4.77

>  <ACD_LOGP>
3.09

>  <ACD_LOGD>
3.09

>  <AROMATIC_RINGS>
2

>  <HEAVY_ATOMS>
27

>  <QED_WEIGHTED>
.82

>  <HBA_LIPINSKI>
7

>  <HBD_LIPINSKI>
0

>  <NUM_LIPINSKI_RO5_VIOLATIONS>
0

>  <MW_MONOISOTOPIC>
370.1053

>  <MOLECULAR_SPECIES>
NEUTRAL

>  <FULL_MOLFORMULA>
C20H18O7

$$$$

  Mrv0541 04051115152D          

 14 14  0  0  0  0            999 V2000
    7.5065   17.2477    0.0000 N   0  0  0  0  0  0  0  0  0  0  0  0
    7.5065   16.4227    0.0000 C   0  0  2  0  0  0  0  0  0  0  0  0
    8.2210   16.0102    0.0000 C   0  0  0  0  0  0  0  0  0  0  0  0
    8.9354   16.4227    0.0000 O   0  0  0  0  0  0  0  0  0  0  0  0
    6.7920   16.0102    0.0000 C   0  0  0  0  0  0  0  0  0  0  0  0
    6.0775   16.4227    0.0000 C   0  0  0  0  0  0  0  0  0  0  0  0
    5.3631   16.0102    0.0000 C   0  0  0  0  0  0  0  0  0  0  0  0
    6.0775   17.2477    0.0000 C   0  0  0  0  0  0  0  0  0  0  0  0
    4.6486   16.4227    0.0000 C   0  0  0  0  0  0  0  0  0  0  0  0
    5.3631   17.6602    0.0000 C   0  0  0  0  0  0  0  0  0  0  0  0
    4.6486   17.2477    0.0000 C   0  0  0  0  0  0  0  0  0  0  0  0
    3.9341   17.6602    0.0000 O   0  0  0  0  0  0  0  0  0  0  0  0
    5.3631   18.4852    0.0000 O   0  0  0  0  0  0  0  0  0  0  0  0
    8.2210   15.1852    0.0000 O   0  0  0  0  0  0  0  0  0  0  0  0
  2  1  1  6  0  0  0
  3  2  1  0  0  0  0
  2  5  1  0  0  0  0
  3  4  2  0  0  0  0
  3 14  1  0  0  0  0
  5  6  1  0  0  0  0
  7  6  1  0  0  0  0
  8  6  2  0  0  0  0
  7  9  2  0  0  0  0
  8 10  1  0  0  0  0
  9 11  1  0  0  0  0
 10 11  2  0  0  0  0
 10 13  1  0  0  0  0
 11 12  1  0  0  0  0
M  END
>  <MOLREGNO>
112655

>  <CHEMBLID>
CHEMBL1009

>  <SYNONYMS>
LEVODOPA | Bendopa | Larodopa | Dopar

>  <MAX_PHASE>
4

>  <MOLWEIGHT>
197.19

>  <ALOGP>
-2.09

>  <PSA>
103.78

>  <HBA>
5

>  <HBD>
4

>  <RO5>
0

>  <RTB>
3

>  <RO3>
N

>  <ACD_MOST_APKA>
2.24

>  <ACD_MOST_BPKA>
8.85

>  <ACD_LOGP>
-1.15

>  <ACD_LOGD>
-3.67

>  <AROMATIC_RINGS>
1

>  <HEAVY_ATOMS>
14

>  <QED_WEIGHTED>
.42

>  <HBA_LIPINSKI>
5

>  <HBD_LIPINSKI>
5

>  <NUM_LIPINSKI_RO5_VIOLATIONS>
0

>  <MW_MONOISOTOPIC>
197.0688

>  <MOLECULAR_SPECIES>
ZWITTERION

>  <FULL_MOLFORMULA>
C9H11NO4

$$$$

  SciTegic12231509382D

 64 70  0  0  1  0            999 V2000
    1.2659    2.4297    0.0000 O   0  0
    0.0626    1.7814    0.0000 O   0  0
   -0.7701    1.4056    0.0000 O   0  0
   -1.3705    0.8449    0.0000 O   0  0
    0.2336   -1.3940    0.0000 O   0  0
    1.3514   -1.1849    0.0000 O   0  0
    3.0723    0.3298    0.0000 O   0  0
   -3.0191   -0.1820    0.0000 O   0  0
   -0.7878    3.0130    0.0000 O   0  0
   -1.1492    2.9182    0.0000 O   0  0
    1.1096   -2.5689    0.0000 O   0  0
   -2.7950   -1.5661    0.0000 O   0  0
   -4.7100   -0.5166    0.0000 O   0  0
   -5.2033   -3.6869    0.0000 O   0  0
   -5.2951   -2.2314    0.0000 N   0  0
    0.7702    0.5178    0.0000 C   0  0  2  0  0  0
    0.8527    1.3386    0.0000 C   0  0  2  0  0  0
    1.4399    0.0359    0.0000 C   0  0  2  0  0  0
   -0.7951    0.2273    0.0000 C   0  0  2  0  0  0
   -0.1782    0.5688    0.0000 C   0  0  1  0  0  0
   -0.6096    0.9481    0.0000 C   0  0
    1.6049    1.6776    0.0000 C   0  0  1  0  0  0
   -0.6217   -0.2486    0.0000 C   0  0
    1.0860   -0.3391    0.0000 C   0  0
    2.1920    0.3749    0.0000 C   0  0  2  0  0  0
    0.2177   -0.4990    0.0000 C   0  0  2  0  0  0
    0.5137    2.0908    0.0000 C   0  0
    2.2745    1.1957    0.0000 C   0  0
   -1.6888    0.4190    0.0000 C   0  0
   -1.3417   -0.5328    0.0000 C   0  0
   -2.1537   -0.0914    0.0000 C   0  0  1  0  0  0
    2.1081   -0.5633    0.0000 C   0  0
   -1.4670    1.4260    0.0000 C   0  0
   -0.6510    1.9344    0.0000 C   0  0
   -0.0335    2.6789    0.0000 C   0  0
   -1.4132    2.1366    0.0000 C   0  0
   -1.5877   -1.3764    0.0000 C   0  0
    0.3472   -2.2536    0.0000 C   0  0
   -2.2221    1.9743    0.0000 C   0  0
   -3.3609   -0.9658    0.0000 C   0  0
    0.6330    3.1651    0.0000 C   0  0
   -4.1986   -1.1640    0.0000 C   0  0  1  0  0  0
   -2.4860    1.1927    0.0000 C   0  0
   -2.7670    2.5938    0.0000 C   0  0
   -0.3070   -2.7562    0.0000 C   0  0
   -4.5168   -1.9636    0.0000 C   0  0  2  0  0  0
   -3.2949    1.0305    0.0000 C   0  0
   -3.5759    2.4315    0.0000 C   0  0
   -4.0055   -2.6110    0.0000 C   0  0
   -3.8398    1.6499    0.0000 C   0  0
   -5.6679   -3.0051    0.0000 C   0  0
   -3.1891   -2.4919    0.0000 C   0  0
   -4.3105   -3.3775    0.0000 C   0  0
   -6.4906   -3.0666    0.0000 C   0  0
   -2.6778   -3.1393    0.0000 C   0  0
   -3.7991   -4.0250    0.0000 C   0  0
   -2.9828   -3.9058    0.0000 C   0  0
   -6.8487   -3.8098    0.0000 C   0  0
   -6.9553   -2.3849    0.0000 C   0  0
   -7.6715   -3.8713    0.0000 C   0  0
   -7.7780   -2.4464    0.0000 C   0  0
   -8.1361   -3.1896    0.0000 C   0  0
    2.3792    2.3104    0.0000 H   0  0
    0.1195    1.2772    0.0000 H   0  0
 22  1  1  0
  1 27  1  0
 17  2  1  1
  2 35  1  0
 20  3  1  1
  3 36  1  0
 19  4  1  1
 26  5  1  6
  5 38  1  0
  6 24  2  0
 25  7  1  6
 31  8  1  1
  8 40  1  0
  9 35  2  0
 10 36  2  0
 11 38  2  0
 12 40  2  0
 42 13  1  1
 14 51  2  0
 46 15  1  6
 15 51  1  0
 16 17  1  0
 16 18  1  0
 16 20  1  0
 17 22  1  0
 17 27  1  0
 18 24  1  0
 18 25  1  0
 18 32  1  6
 19 20  1  0
 19 21  1  0
 19 29  1  0
 21 23  1  0
 21 33  1  0
 21 34  1  0
 22 28  1  0
 23 26  1  0
 23 30  2  0
 24 26  1  0
 25 28  1  0
 29 31  1  0
 30 31  1  0
 30 37  1  0
 35 41  1  0
 36 39  1  0
 38 45  1  0
 39 43  2  0
 39 44  1  0
 40 42  1  0
 42 46  1  0
 43 47  1  0
 44 48  2  0
 46 49  1  0
 47 50  2  0
 48 50  1  0
 49 52  2  0
 49 53  1  0
 51 54  1  0
 52 55  1  0
 53 56  2  0
 54 58  2  0
 54 59  1  0
 55 57  2  0
 56 57  1  0
 58 60  1  0
 59 61  2  0
 60 62  2  0
 61 62  1  0
 22 63  1  1
 16 64  1  1
M  END
>  <MOLREGNO>
8062

>  <CHEMBLID>
CHEMBL428647

>  <SYNONYMS>
Abraxane | Taxol | Paclitaxel | BMS-181339-01

>  <MAX_PHASE>
4

>  <MOLWEIGHT>
853.91

>  <ALOGP>
3.06

>  <PSA>
221.28

>  <HBA>
14

>  <HBD>
4

>  <RO5>
2

>  <RTB>
14

>  <RO3>
N

>  <ACD_MOST_APKA>
12.19

>  <ACD_MOST_BPKA>
6.05

>  <ACD_LOGP>
3.52

>  <ACD_LOGD>
3.5

>  <AROMATIC_RINGS>
3

>  <HEAVY_ATOMS>
62

>  <QED_WEIGHTED>
.14

>  <HBA_LIPINSKI>
15

>  <HBD_LIPINSKI>
4

>  <NUM_LIPINSKI_RO5_VIOLATIONS>
1

>  <MW_MONOISOTOPIC>
853.331

>  <MOLECULAR_SPECIES>
NEUTRAL

>  <FULL_MOLFORMULA>
C47H51NO14

$$$$

  SciTegic01161211222D

 62 67  0  0  0  0            999 V2000
    4.2459   -4.9709    0.0000 C   0  0  2  0  0  0
    4.9584   -6.2084    0.0000 C   0  0  1  0  0  0
    2.8209   -5.7917    0.0000 C   0  0  2  0  0  0
    4.2459   -5.7959    0.0000 C   0  0  1  0  0  0
    2.1209   -4.5459    0.0000 C   0  0
    2.8334   -4.9667    0.0000 C   0  0
    4.2459   -4.1459    0.0000 C   0  0
    3.5334   -6.2084    0.0000 C   0  0  2  0  0  0
    3.5292   -3.7334    0.0000 C   0  0  2  0  0  0
    1.4042   -4.9542    0.0000 C   0  0
    2.1084   -6.1959    0.0000 C   0  0
    1.3959   -5.7834    0.0000 C   0  0  2  0  0  0
   -0.0291   -5.7667    0.0000 C   0  0
    4.9584   -4.5542    0.0000 C   0  0  2  0  0  0
   -0.7458   -6.1709    0.0000 C   0  0  1  0  0  0
    5.6792   -5.7959    0.0000 C   0  0  1  0  0  0
   -1.4541   -4.9292    0.0000 N   0  0
    3.5292   -7.0334    0.0000 O   0  0
   -1.4583   -5.7542    0.0000 C   0  0  1  0  0  0
   -2.1583   -4.5084    0.0000 C   0  0
    2.8084   -7.4417    0.0000 C   0  0
    0.6792   -6.1834    0.0000 O   0  0
    5.3667   -6.9292    0.0000 C   0  0
    5.6792   -4.9709    0.0000 C   0  0
    4.3709   -6.7834    0.0000 O   0  0
    6.0834   -6.5209    0.0000 O   0  0
    3.5209   -2.9167    0.0000 O   0  0
    4.3667   -7.6084    0.0000 C   0  0
    2.8084   -2.5042    0.0000 C   0  0
    4.9542   -3.7292    0.0000 O   0  0
   -0.0208   -4.9459    0.0000 O   0  0
   -2.8791   -4.9209    0.0000 O   0  0
    2.1042   -7.0209    0.0000 O   0  0
    2.8167   -6.6167    0.0000 O   0  0
   -2.1541   -3.6917    0.0000 C   0  0
    2.8084   -8.2584    0.0000 C   0  0
   -2.1708   -6.1584    0.0000 C   0  0
    2.8000   -1.6792    0.0000 O   0  0
    3.6459   -8.0209    0.0000 O   0  0
    3.6667   -5.5459    0.0000 C   0  0
   -0.7541   -6.9959    0.0000 O   0  0
    5.6667   -4.1334    0.0000 O   0  0
    3.2334   -4.2459    0.0000 C   0  0
    3.6542   -4.9667    0.0000 C   0  0
    0.6959   -4.5334    0.0000 C   0  0
    5.0792   -8.0292    0.0000 C   0  0
    2.0959   -2.9209    0.0000 C   0  0
    3.5209   -8.6709    0.0000 C   0  0
    2.0917   -8.6709    0.0000 C   0  0
   -2.8791   -5.7417    0.0000 C   0  0
   -2.1708   -6.9834    0.0000 C   0  0
   -2.8916   -7.3917    0.0000 C   0  0
    3.5209   -9.4959    0.0000 C   0  0
    2.0834   -9.4917    0.0000 C   0  0
   -3.6000   -6.1459    0.0000 C   0  0
   -3.6041   -6.9709    0.0000 C   0  0
    2.7959   -9.9084    0.0000 C   0  0
    4.9584   -5.3834    0.0000 H   0  0
    6.3834   -5.3834    0.0000 H   0  0
   -1.4376   -3.2828    0.0000 C   0  0
   -2.8665   -3.2755    0.0000 C   0  0
   -2.8622   -2.4505    0.0000 C   0  0
  4  1  1  0
  5  9  1  0
  6  5  1  0
  7  1  1  0
  8  4  1  0
  9  7  1  0
 10  5  2  0
 11  3  1  0
 12 10  1  0
 13 22  1  0
 14  1  1  0
 15 13  1  0
 16 24  1  0
 19 17  1  6
  8 18  1  6
 19 15  1  0
 20 17  1  0
 21 18  1  0
 12 22  1  6
 23  2  1  0
 24 14  1  0
  2 25  1  6
 26 16  1  0
  9 27  1  1
 28 25  1  0
 29 27  1  0
 30  7  2  0
 31 13  2  0
 32 20  2  0
 33 21  2  0
  3 34  1  1
 35 20  1  0
 36 21  1  0
 37 19  1  0
 38 29  2  0
 39 28  2  0
  1 40  1  1
 15 41  1  6
 14 42  1  1
 43  6  1  0
 44  6  1  0
 45 10  1  0
 46 28  1  0
 47 29  1  0
 48 36  1  0
 49 36  2  0
 50 37  2  0
 51 37  1  0
 52 51  2  0
 53 48  2  0
 54 49  1  0
 55 50  1  0
 56 52  1  0
 57 54  2  0
  4 58  1  6
 16 59  1  6
 16  2  1  0
 23 26  1  0
  3  6  1  0
 11 12  1  0
 57 53  1  0
 55 56  2  0
 35 60  1  0
  2  4  1  0
 35 61  2  0
  3  8  1  0
 61 62  1  0
M  END
>  <MOLREGNO>
112854

>  <CHEMBLID>
CHEMBL305522

>  <SYNONYMS>
Cephalomannine

>  <MAX_PHASE>
0

>  <MOLWEIGHT>
831.9

>  <ALOGP>
2.94

>  <PSA>
221.28

>  <HBA>
14

>  <HBD>
4

>  <RO5>
2

>  <RTB>
14

>  <RO3>
N

>  <ACD_MOST_APKA>
11.95

>  <ACD_MOST_BPKA>


>  <ACD_LOGP>
2.83

>  <ACD_LOGD>
2.83

>  <AROMATIC_RINGS>
2

>  <HEAVY_ATOMS>
60

>  <QED_WEIGHTED>
.12

>  <HBA_LIPINSKI>
15

>  <HBD_LIPINSKI>
4

>  <NUM_LIPINSKI_RO5_VIOLATIONS>
1

>  <MW_MONOISOTOPIC>
831.3466

>  <MOLECULAR_SPECIES>
NEUTRAL

>  <FULL_MOLFORMULA>
C45H53NO14

$$$$

  SciTegic12231509382D

 60 65  0  0  0  0            999 V2000
    1.0016    0.0177    0.0000 C   0  0  2  0  0  0
    1.8410   -0.2327    0.0000 C   0  0  2  0  0  0
    2.7093   -0.0728    0.0000 C   0  0  2  0  0  0
    3.1379   -0.7778    0.0000 C   0  0  1  0  0  0
    3.9627   -0.7591    0.0000 C   0  0  1  0  0  0
    4.3589   -0.0354    0.0000 C   0  0
    3.9303    0.6695    0.0000 C   0  0  1  0  0  0
    3.1055    0.6508    0.0000 C   0  0  1  0  0  0
    2.3935    0.7841    0.0000 C   0  0
    1.4451    0.8351    0.0000 C   0  0  1  0  0  0
    0.8282    0.4936    0.0000 C   0  0
   -0.0655    0.6853    0.0000 C   0  0
   -0.5304    0.1749    0.0000 C   0  0  2  0  0  0
    0.2816   -0.2665    0.0000 C   0  0
    1.0137    1.2144    0.0000 C   0  0
    1.1837    2.0217    0.0000 C   0  0
    0.5658    1.9072    0.0000 C   0  0
   -0.3175    1.4708    0.0000 C   0  0
    3.1724    1.4731    0.0000 C   0  0
    3.1566   -1.6026    0.0000 C   0  0
    1.0371   -0.8066    0.0000 O   0  0
    1.7966   -1.0565    0.0000 O   0  0
    2.3461   -1.0093    0.0000 O   0  0
    3.9814   -1.5838    0.0000 O   0  0
    4.3265    1.3932    0.0000 O   0  0
    2.4918    1.6032    0.0000 O   0  0
    1.2603    1.6391    0.0000 O   0  0
   -1.3439    0.0377    0.0000 O   0  0
   -1.8695    0.6736    0.0000 C   0  0
   -1.5815    1.4467    0.0000 O   0  0
   -2.6830    0.5364    0.0000 C   0  0  2  0  0  0
   -2.9709   -0.2367    0.0000 O   0  0
   -3.2085    1.1724    0.0000 C   0  0  2  0  0  0
   -2.9206    1.9455    0.0000 C   0  0
   -3.4461    2.5814    0.0000 C   0  0
   -3.1582    3.3545    0.0000 C   0  0
   -2.3447    3.4917    0.0000 C   0  0
   -1.8191    2.8558    0.0000 C   0  0
   -2.1071    2.0827    0.0000 C   0  0
   -4.0221    1.0352    0.0000 N   0  0
   -4.3100    0.2621    0.0000 C   0  0
   -3.7845   -0.3738    0.0000 O   0  0
   -5.1235    0.1249    0.0000 O   0  0
   -5.6491    0.7608    0.0000 C   0  0
   -6.1746    1.3968    0.0000 C   0  0
   -6.2850    0.2353    0.0000 C   0  0
   -5.0132    1.2864    0.0000 C   0  0
    1.0609   -1.4300    0.0000 C   0  0
    0.3697   -0.9796    0.0000 O   0  0
    1.0165   -2.2538    0.0000 C   0  0
    1.7077   -2.7041    0.0000 C   0  0
    1.6632   -3.5279    0.0000 C   0  0
    0.9276   -3.9014    0.0000 C   0  0
    0.2364   -3.4510    0.0000 C   0  0
    0.2808   -2.6272    0.0000 C   0  0
    2.1507   -1.8108    0.0000 C   0  0
    2.7471   -2.3808    0.0000 O   0  0
    1.3588   -2.0424    0.0000 C   0  0
    4.7642   -0.9544    0.0000 H   0  0
    2.1348   -0.6650    0.0000 H   0  0
  1  2  1  0
  1 14  1  0
  1 15  1  0
  1 21  1  1
  2  3  1  0
  2 22  1  6
  3  4  1  0
  3  8  1  0
  4  5  1  0
 20  4  1  0
  4 23  1  6
  5  6  1  0
  5 24  1  0
  6  7  1  0
  7  8  1  0
  7 25  1  1
  8  9  1  0
  8 19  1  1
 10  9  1  0
  9 26  2  0
 10 11  1  0
 10 27  1  1
 11 12  2  0
 11 15  1  0
 12 13  1  0
 12 18  1  0
 13 14  1  0
 13 28  1  6
 15 16  1  0
 15 17  1  0
 20 24  1  0
 48 22  1  0
 56 23  1  0
 29 28  1  0
 29 30  2  0
 29 31  1  0
 31 32  1  6
 31 33  1  0
 33 34  1  0
 33 40  1  1
 34 35  1  0
 34 39  2  0
 35 36  2  0
 36 37  1  0
 37 38  2  0
 38 39  1  0
 41 40  1  0
 41 42  2  0
 41 43  1  0
 44 43  1  0
 44 45  1  0
 44 46  1  0
 44 47  1  0
 48 49  2  0
 48 50  1  0
 50 51  2  0
 50 55  1  0
 51 52  1  0
 52 53  2  0
 53 54  1  0
 54 55  2  0
 56 57  2  0
 56 58  1  0
  5 59  1  6
  3 60  1  6
M  END
>  <MOLREGNO>
9097

>  <CHEMBLID>
CHEMBL92

>  <SYNONYMS>
RP 56976 | RP-56976 | Taxotere | DOCEFREZ | DOCETAXEL

>  <MAX_PHASE>
4

>  <MOLWEIGHT>
807.88

>  <ALOGP>
2.59

>  <PSA>
224.44

>  <HBA>
14

>  <HBD>
5

>  <RO5>
2

>  <RTB>
13

>  <RO3>
N

>  <ACD_MOST_APKA>
9.9

>  <ACD_MOST_BPKA>


>  <ACD_LOGP>
3.03

>  <ACD_LOGD>
3.03

>  <AROMATIC_RINGS>
2

>  <HEAVY_ATOMS>
58

>  <QED_WEIGHTED>
.15

>  <HBA_LIPINSKI>
15

>  <HBD_LIPINSKI>
5

>  <NUM_LIPINSKI_RO5_VIOLATIONS>
1

>  <MW_MONOISOTOPIC>
807.3466

>  <MOLECULAR_SPECIES>
NEUTRAL

>  <FULL_MOLFORMULA>
C43H53NO14

$$$$

  SciTegic01161211232D

 30 32  0  0  0  0            999 V2000
   -0.2802  -20.8190    0.0000 O   0  0
    0.4347  -21.2331    0.0000 C   0  0  1  0  0  0
    1.1495  -20.8211    0.0000 C   0  0  2  0  0  0
    1.1493  -19.9949    0.0000 O   0  0
    1.8644  -21.2353    0.0000 C   0  0  1  0  0  0
    2.5791  -20.8232    0.0000 O   0  0
    1.8646  -22.0615    0.0000 C   0  0  2  0  0  0
    2.5774  -22.4720    0.0000 O   0  0
    1.1498  -22.4735    0.0000 C   0  0  2  0  0  0
    0.4349  -22.0593    0.0000 O   0  0
    1.1479  -23.2961    0.0000 C   0  0
    0.4332  -23.7081    0.0000 O   0  0
   -0.2796  -19.9958    0.0000 C   0  0  2  0  0  0
    0.4324  -19.5875    0.0000 O   0  0
    0.4324  -18.7625    0.0000 C   0  0
   -0.2796  -18.3458    0.0000 C   0  0
   -0.9917  -19.5875    0.0000 C   0  0  1  0  0  0
   -0.9916  -18.7579    0.0000 C   0  0  2  0  0  0
   -1.7806  -18.5015    0.0000 C   0  0
   -2.2683  -19.1727    0.0000 C   0  0
   -1.7807  -19.8437    0.0000 C   0  0
   -0.9958  -17.9292    0.0000 H   0  0
   -0.9958  -20.4125    0.0000 H   0  0
   -0.2777  -17.5208    0.0000 C   0  0
    0.4378  -17.1100    0.0000 O   0  0
   -0.9912  -17.1066    0.0000 O   0  0
   -2.0356  -20.6284    0.0000 C   0  0
   -2.8426  -20.7999    0.0000 O   0  0
    1.1513  -17.5242    0.0000 C   0  0
   -0.2833  -21.6375    0.0000 H   0  0
 17 13  1  0
 13 14  1  0
 14 15  1  0
 15 16  2  0
 17 18  1  0
  3  5  1  0
  5  6  1  1
  5  7  1  0
  7  8  1  6
  7  9  1  0
 18 19  1  0
 19 20  1  0
 20 21  2  0
 21 17  1  0
  9 10  1  0
 18 22  1  1
  9 11  1  1
 17 23  1  1
 11 12  1  0
 16 24  1  0
  2 10  1  0
 24 25  1  0
 24 26  2  0
 13  1  1  1
  2  1  1  0
 21 27  1  0
  2  3  1  0
 27 28  1  0
  3  4  1  6
 25 29  1  0
 18 16  1  0
  2 30  1  6
M  END
>  <MOLREGNO>
462785

>  <CHEMBLID>
CHEMBL462894

>  <SYNONYMS>
Geniposide

>  <MAX_PHASE>
0

>  <MOLWEIGHT>
388.37

>  <ALOGP>
-2.07

>  <PSA>
155.14

>  <HBA>
10

>  <HBD>
5

>  <RO5>
0

>  <RTB>
6

>  <RO3>
N

>  <ACD_MOST_APKA>
12.8

>  <ACD_MOST_BPKA>


>  <ACD_LOGP>
-2.08

>  <ACD_LOGD>
-2.08

>  <AROMATIC_RINGS>
0

>  <HEAVY_ATOMS>
27

>  <QED_WEIGHTED>
.25

>  <HBA_LIPINSKI>
10

>  <HBD_LIPINSKI>
5

>  <NUM_LIPINSKI_RO5_VIOLATIONS>
0

>  <MW_MONOISOTOPIC>
388.1369

>  <MOLECULAR_SPECIES>
NEUTRAL

>  <FULL_MOLFORMULA>
C17H24O10

$$$$

  CDK    9/16/09,9:20

 29 31  0  0  0  0  0  0  0  0999 V2000
   18.9700  -12.4765    0.0000 C   0  0  0  0  0  0  0  0  0  0  0  0
   19.6859  -12.0640    0.0000 C   0  0  0  0  0  0  0  0  0  0  0  0
   20.3976  -12.4765    0.0000 C   0  0  0  0  0  0  0  0  0  0  0  0
   20.3976  -13.3015    0.0000 C   0  0  0  0  0  0  0  0  0  0  0  0
   19.6859  -13.7140    0.0000 C   0  0  0  0  0  0  0  0  0  0  0  0
   18.9700  -13.3015    0.0000 O   0  0  0  0  0  0  0  0  0  0  0  0
   21.0099  -11.9276    0.0000 C   0  0  0  0  0  0  0  0  0  0  0  0
   20.6764  -11.1731    0.0000 C   0  0  0  0  0  0  0  0  0  0  0  0
   19.8541  -11.2579    0.0000 C   0  0  0  0  0  0  0  0  0  0  0  0
   21.1135  -13.7140    0.0000 C   0  0  0  0  0  0  0  0  0  0  0  0
   21.1135  -14.5390    0.0000 O   0  0  0  0  0  0  0  0  0  0  0  0
   21.8252  -13.3015    0.0000 O   0  0  0  0  0  0  0  0  0  0  0  0
   18.2542  -12.0640    0.0000 O   0  0  0  0  0  0  0  0  0  0  0  0
   16.8266  -12.0640    0.0000 O   0  0  0  0  0  0  0  0  0  0  0  0
   17.5383  -12.4765    0.0000 C   0  0  0  0  0  0  0  0  0  0  0  0
   17.5383  -13.3015    0.0000 C   0  0  0  0  0  0  0  0  0  0  0  0
   16.8266  -13.7140    0.0000 C   0  0  0  0  0  0  0  0  0  0  0  0
   16.1107  -13.3015    0.0000 C   0  0  0  0  0  0  0  0  0  0  0  0
   16.1107  -12.4765    0.0000 C   0  0  0  0  0  0  0  0  0  0  0  0
   15.3990  -12.0640    0.0000 C   0  0  0  0  0  0  0  0  0  0  0  0
   14.6832  -12.4765    0.0000 O   0  0  0  0  0  0  0  0  0  0  0  0
   15.3990  -13.7140    0.0000 O   0  0  0  0  0  0  0  0  0  0  0  0
   16.8266  -14.5390    0.0000 O   0  0  0  0  0  0  0  0  0  0  0  0
   18.2542  -13.7140    0.0000 O   0  0  0  0  0  0  0  0  0  0  0  0
   19.3010  -10.6457    0.0000 C   0  0  0  0  0  0  0  0  0  0  0  0
   19.5581   -9.8610    0.0000 O   0  0  0  0  0  0  0  0  0  0  0  0
   21.1520  -12.8141    0.0000 H   0  0  0  0  0  0  0  0  0  0  0  0
   19.0163  -11.5792    0.0000 H   0  0  0  0  0  0  0  0  0  0  0  0
   18.2500  -12.8833    0.0000 H   0  0  0  0  0  0  0  0  0  0  0  0
  1  2  1  0  0  0  0 
  2  3  1  0  0  0  0 
  3  4  1  0  0  0  0 
  4  5  2  0  0  0  0 
  5  6  1  0  0  0  0 
  1  6  1  0  0  0  0 
  7  8  1  0  0  0  0 
  8  9  2  0  0  0  0 
  2  9  1  0  0  0  0 
  3  7  1  0  0  0  0 
 10 11  2  0  0  0  0 
 10 12  1  0  0  0  0 
  4 10  1  0  0  0  0 
 14 15  1  0  0  0  0 
 15 16  1  0  0  0  0 
 16 17  1  0  0  0  0 
 17 18  1  0  0  0  0 
 18 19  1  0  0  0  0 
 14 19  1  0  0  0  0 
 20 21  1  0  0  0  0 
 19 20  1  1  0  0  0 
 18 22  1  6  0  0  0 
 17 23  1  1  0  0  0 
 16 24  1  6  0  0  0 
 15 13  1  1  0  0  0 
  1 13  1  0  0  0  0 
 25 26  1  0  0  0  0 
  9 25  1  0  0  0  0 
  3 27  1  1  0  0  0 
  2 28  1  1  0  0  0 
  1 29  1  6  0  0  0 
M  END
>  <MOLREGNO>
446545

>  <CHEMBLID>
CHEMBL460031

>  <SYNONYMS>
Geniposidic Acid

>  <MAX_PHASE>
0

>  <MOLWEIGHT>
374.34

>  <ALOGP>
-2.29

>  <PSA>
166.14

>  <HBA>
10

>  <HBD>
6

>  <RO5>
1

>  <RTB>
5

>  <RO3>
N

>  <ACD_MOST_APKA>
4.49

>  <ACD_MOST_BPKA>


>  <ACD_LOGP>
-2.38

>  <ACD_LOGD>
-5.21

>  <AROMATIC_RINGS>
0

>  <HEAVY_ATOMS>
26

>  <QED_WEIGHTED>
.29

>  <HBA_LIPINSKI>
10

>  <HBD_LIPINSKI>
6

>  <NUM_LIPINSKI_RO5_VIOLATIONS>
1

>  <MW_MONOISOTOPIC>
374.1213

>  <MOLECULAR_SPECIES>
ACID

>  <FULL_MOLFORMULA>
C16H22O10

$$$$

  SciTegic01161211232D

 18 19  0  0  0  0            999 V2000
   14.3521  -13.7192    0.0000 O   0  0
   14.3521  -12.8943    0.0000 C   0  0  2  0  0  0
   15.0640  -12.4861    0.0000 O   0  0
   15.0640  -11.6612    0.0000 C   0  0
   14.3521  -11.2445    0.0000 C   0  0
   13.6402  -12.4861    0.0000 C   0  0  1  0  0  0
   13.6402  -11.6566    0.0000 C   0  0  2  0  0  0
   12.8512  -11.4002    0.0000 C   0  0
   12.3636  -12.0713    0.0000 C   0  0
   12.8512  -12.7423    0.0000 C   0  0
   13.6360  -10.8280    0.0000 H   0  0
   13.6360  -13.3110    0.0000 H   0  0
   14.3541  -10.4196    0.0000 C   0  0
   15.0694  -10.0089    0.0000 O   0  0
   13.6407  -10.0055    0.0000 O   0  0
   12.5963  -13.5269    0.0000 C   0  0
   11.7894  -13.6983    0.0000 O   0  0
   15.7828  -10.4230    0.0000 C   0  0
  8  9  1  0
  9 10  2  0
 10  6  1  0
  4  5  2  0
  7 11  1  1
  6  7  1  0
  6 12  1  1
  5 13  1  0
  7  5  1  0
 13 14  1  0
  6  2  1  0
 13 15  2  0
  2  1  1  1
  2  3  1  0
 10 16  1  0
  3  4  1  0
 16 17  1  0
  7  8  1  0
 14 18  1  0
M  END
>  <MOLREGNO>
444301

>  <CHEMBLID>
CHEMBL459016

>  <SYNONYMS>
Genipin

>  <MAX_PHASE>
0

>  <MOLWEIGHT>
226.23

>  <ALOGP>
-.32

>  <PSA>
75.98

>  <HBA>
5

>  <HBD>
2

>  <RO5>
0

>  <RTB>
3

>  <RO3>
N

>  <ACD_MOST_APKA>
12.07

>  <ACD_MOST_BPKA>


>  <ACD_LOGP>
.01

>  <ACD_LOGD>
.01

>  <AROMATIC_RINGS>
0

>  <HEAVY_ATOMS>
16

>  <QED_WEIGHTED>
.51

>  <HBA_LIPINSKI>
5

>  <HBD_LIPINSKI>
2

>  <NUM_LIPINSKI_RO5_VIOLATIONS>
0

>  <MW_MONOISOTOPIC>
226.0841

>  <MOLECULAR_SPECIES>
NEUTRAL

>  <FULL_MOLFORMULA>
C11H14O5

$$$$

  CDK    9/16/09,9:19

 20 21  0  0  0  0  0  0  0  0999 V2000
   -0.8364  -13.7388    0.0000 C   0  0  0  0  0  0  0  0  0  0  0  0
   -1.2249  -13.0110    0.0000 C   0  0  0  0  0  0  0  0  0  0  0  0
   -0.7885  -12.3109    0.0000 C   0  0  0  0  0  0  0  0  0  0  0  0
    0.0362  -12.3386    0.0000 C   0  0  0  0  0  0  0  0  0  0  0  0
    0.4247  -13.0664    0.0000 C   0  0  0  0  0  0  0  0  0  0  0  0
   -0.0117  -13.7664    0.0000 C   0  0  0  0  0  0  0  0  0  0  0  0
   -2.0496  -12.9833    0.0000 C   0  0  0  0  0  0  0  0  0  0  0  0
   -2.4859  -13.6834    0.0000 C   0  0  0  0  0  0  0  0  0  0  0  0
   -3.3107  -13.6557    0.0000 C   0  0  0  0  0  0  0  0  0  0  0  0
   -3.6991  -12.9280    0.0000 C   0  0  0  0  0  0  0  0  0  0  0  0
   -3.2628  -12.2279    0.0000 C   0  0  0  0  0  0  0  0  0  0  0  0
   -2.4380  -12.2556    0.0000 C   0  0  0  0  0  0  0  0  0  0  0  0
   -2.0975  -14.4112    0.0000 O   0  0  0  0  0  0  0  0  0  0  0  0
   -3.6512  -11.5001    0.0000 C   0  0  0  0  0  0  0  0  0  0  0  0
   -4.4760  -11.4725    0.0000 C   0  0  0  0  0  0  0  0  0  0  0  0
   -4.8644  -10.7447    0.0000 C   0  0  0  0  0  0  0  0  0  0  0  0
    0.4726  -11.6386    0.0000 C   0  0  0  0  0  0  0  0  0  0  0  0
    1.2974  -11.6662    0.0000 C   0  0  0  0  0  0  0  0  0  0  0  0
    1.7336  -10.9662    0.0000 C   0  0  0  0  0  0  0  0  0  0  0  0
   -1.2727  -14.4388    0.0000 O   0  0  0  0  0  0  0  0  0  0  0  0
  1  2  1  0  0  0  0 
  2  3  2  0  0  0  0 
  3  4  1  0  0  0  0 
  4  5  2  0  0  0  0 
  5  6  1  0  0  0  0 
  1  6  2  0  0  0  0 
  7  8  1  0  0  0  0 
  8  9  2  0  0  0  0 
  9 10  1  0  0  0  0 
 10 11  2  0  0  0  0 
 11 12  1  0  0  0  0 
  7 12  2  0  0  0  0 
  8 13  1  0  0  0  0 
 14 15  1  0  0  0  0 
 15 16  2  0  0  0  0 
 11 14  1  0  0  0  0 
  2  7  1  0  0  0  0 
 17 18  1  0  0  0  0 
 18 19  2  0  0  0  0 
  4 17  1  0  0  0  0 
  1 20  1  0  0  0  0 
M  END
>  <MOLREGNO>
304777

>  <CHEMBLID>
CHEMBL180920

>  <SYNONYMS>
Magnolol

>  <MAX_PHASE>
0

>  <MOLWEIGHT>
266.33

>  <ALOGP>
4.88

>  <PSA>
40.46

>  <HBA>
2

>  <HBD>
2

>  <RO5>
0

>  <RTB>
5

>  <RO3>
N

>  <ACD_MOST_APKA>
9.49

>  <ACD_MOST_BPKA>


>  <ACD_LOGP>
4.5

>  <ACD_LOGD>
4.5

>  <AROMATIC_RINGS>
2

>  <HEAVY_ATOMS>
20

>  <QED_WEIGHTED>
.76

>  <HBA_LIPINSKI>
2

>  <HBD_LIPINSKI>
2

>  <NUM_LIPINSKI_RO5_VIOLATIONS>
0

>  <MW_MONOISOTOPIC>
266.1307

>  <MOLECULAR_SPECIES>
NEUTRAL

>  <FULL_MOLFORMULA>
C18H18O2

$$$$

  CDK    9/16/09,9:52

 20 21  0  0  0  0  0  0  0  0999 V2000
    7.9276   -1.5812    0.0000 C   0  0  0  0  0  0  0  0  0  0  0  0
    7.9263   -2.4088    0.0000 C   0  0  0  0  0  0  0  0  0  0  0  0
    8.6393   -2.8217    0.0000 C   0  0  0  0  0  0  0  0  0  0  0  0
    9.3586   -2.4083    0.0000 C   0  0  0  0  0  0  0  0  0  0  0  0
    9.3555   -1.5772    0.0000 C   0  0  0  0  0  0  0  0  0  0  0  0
    8.6373   -1.1684    0.0000 C   0  0  0  0  0  0  0  0  0  0  0  0
    8.6334   -0.3434    0.0000 O   0  0  0  0  0  0  0  0  0  0  0  0
   10.0678   -1.1612    0.0000 C   0  0  0  0  0  0  0  0  0  0  0  0
   10.7814   -1.5746    0.0000 C   0  0  0  0  0  0  0  0  0  0  0  0
   11.4933   -1.1593    0.0000 C   0  0  0  0  0  0  0  0  0  0  0  0
   11.4897   -0.3334    0.0000 C   0  0  0  0  0  0  0  0  0  0  0  0
   10.7681    0.0753    0.0000 C   0  0  0  0  0  0  0  0  0  0  0  0
   10.0592   -0.3423    0.0000 C   0  0  0  0  0  0  0  0  0  0  0  0
    8.6378   -3.6467    0.0000 C   0  0  0  0  0  0  0  0  0  0  0  0
    9.3516   -4.0604    0.0000 C   0  0  0  0  0  0  0  0  0  0  0  0
    9.3503   -4.8854    0.0000 C   0  0  0  0  0  0  0  0  0  0  0  0
   12.2015    0.0836    0.0000 O   0  0  0  0  0  0  0  0  0  0  0  0
   12.2097   -1.5686    0.0000 C   0  0  0  0  0  0  0  0  0  0  0  0
   12.9222   -1.1529    0.0000 C   0  0  0  0  0  0  0  0  0  0  0  0
   13.6385   -1.5622    0.0000 C   0  0  0  0  0  0  0  0  0  0  0  0
  9 10  1  0  0  0  0 
  2  3  1  0  0  0  0 
 10 11  2  0  0  0  0 
  5  6  2  0  0  0  0 
 11 12  1  0  0  0  0 
  6  1  1  0  0  0  0 
 12 13  2  0  0  0  0 
 13  8  1  0  0  0  0 
  1  2  2  0  0  0  0 
  3 14  1  0  0  0  0 
  6  7  1  0  0  0  0 
 14 15  1  0  0  0  0 
  3  4  2  0  0  0  0 
 15 16  2  0  0  0  0 
  5  8  1  0  0  0  0 
 11 17  1  0  0  0  0 
 10 18  1  0  0  0  0 
  8  9  2  0  0  0  0 
 18 19  1  0  0  0  0 
  4  5  1  0  0  0  0 
 19 20  2  0  0  0  0 
M  END
>  <MOLREGNO>
18078

>  <CHEMBLID>
CHEMBL16901

>  <SYNONYMS>
Honokiol

>  <MAX_PHASE>
0

>  <MOLWEIGHT>
266.33

>  <ALOGP>
4.88

>  <PSA>
40.46

>  <HBA>
2

>  <HBD>
2

>  <RO5>
0

>  <RTB>
5

>  <RO3>
N

>  <ACD_MOST_APKA>
9.89

>  <ACD_MOST_BPKA>


>  <ACD_LOGP>
4.56

>  <ACD_LOGD>
4.56

>  <AROMATIC_RINGS>
2

>  <HEAVY_ATOMS>
20

>  <QED_WEIGHTED>
.76

>  <HBA_LIPINSKI>
2

>  <HBD_LIPINSKI>
2

>  <NUM_LIPINSKI_RO5_VIOLATIONS>
0

>  <MW_MONOISOTOPIC>
266.1307

>  <MOLECULAR_SPECIES>
NEUTRAL

>  <FULL_MOLFORMULA>
C18H18O2

$$$$

  SciTegic09251318272D

 64 71  0  0  0  0            999 V2000
    0.5589    4.9346    0.0000 C   0  0
   -0.1556    4.5221    0.0000 C   0  0
   -0.1556    3.6971    0.0000 C   0  0
    0.5589    3.2846    0.0000 C   0  0
    1.2734    3.6971    0.0000 C   0  0
    1.2734    4.5221    0.0000 C   0  0
    1.9879    4.9346    0.0000 C   0  0
    2.7024    4.5221    0.0000 C   0  0
    2.7024    3.6971    0.0000 C   0  0
    1.9879    3.2846    0.0000 C   0  0  2  0  0  0
    3.4168    4.9346    0.0000 C   0  0
    4.1313    4.5222    0.0000 C   0  0
    4.1313    3.6972    0.0000 C   0  0
    3.4168    3.2846    0.0000 C   0  0
    2.0208    1.3418    0.0000 C   0  0  2  0  0  0
    1.3063    0.9293    0.0000 C   0  0
    1.3063    0.1043    0.0000 C   0  0
    2.0208   -0.3082    0.0000 C   0  0
    2.7352    0.1043    0.0000 C   0  0
    2.7352    0.9293    0.0000 C   0  0
    3.4497    1.3418    0.0000 C   0  0
    4.1642    0.9293    0.0000 C   0  0
    4.1642    0.1043    0.0000 C   0  0
    3.4497   -0.3082    0.0000 C   0  0
    0.5918    1.3418    0.0000 C   0  0
   -0.1227    0.9293    0.0000 C   0  0
   -0.1227    0.1043    0.0000 C   0  0
    0.5918   -0.3082    0.0000 C   0  0
    1.9879    5.7596    0.0000 O   0  0
    3.4168    5.7596    0.0000 O   0  0
    4.8458    3.2847    0.0000 C   0  0
    4.8458    2.4597    0.0000 O   0  0
    5.5603    3.6972    0.0000 O   0  0
    4.8787    1.3418    0.0000 C   0  0
    5.5931    0.9293    0.0000 O   0  0
    4.8787    2.1668    0.0000 O   0  0
    2.0208   -1.1332    0.0000 O   0  0
    0.5589    5.7596    0.0000 O   0  0
   -0.1556    6.1721    0.0000 C   0  0  1  0  0  0
   -0.1556    6.9971    0.0000 C   0  0  1  0  0  0
   -0.8701    7.4096    0.0000 C   0  0  2  0  0  0
   -1.5845    6.9971    0.0000 C   0  0  1  0  0  0
   -1.5845    6.1721    0.0000 C   0  0  2  0  0  0
   -0.8700    5.7596    0.0000 O   0  0
   -2.2990    5.7596    0.0000 C   0  0
   -2.2990    4.9346    0.0000 O   0  0
   -2.2990    7.4096    0.0000 O   0  0
   -0.8701    8.2346    0.0000 O   0  0
    0.5589    7.4096    0.0000 O   0  0
    0.5918   -1.1332    0.0000 O   0  0
   -0.1227   -1.5457    0.0000 C   0  0  2  0  0  0
   -0.8372   -1.1332    0.0000 O   0  0
   -1.5517   -1.5457    0.0000 C   0  0  1  0  0  0
   -1.5517   -2.3707    0.0000 C   0  0  2  0  0  0
   -0.8372   -2.7832    0.0000 C   0  0  1  0  0  0
   -0.1227   -2.3707    0.0000 C   0  0  1  0  0  0
   -2.2661   -1.1331    0.0000 C   0  0
   -2.9806   -1.5456    0.0000 O   0  0
   -2.2662   -2.7831    0.0000 O   0  0
   -0.8372   -3.6082    0.0000 O   0  0
    0.5917   -2.7832    0.0000 O   0  0
    3.4497   -1.1332    0.0000 O   0  0
    1.3653    2.0195    0.0000 H   0  0
    2.5713    2.7012    0.0000 H   0  0
  1  2  1  0
  1  6  2  0
  2  3  2  0
  3  4  1  0
  4  5  2  0
 10  5  1  0
  5  6  1  0
  6  7  1  0
  7  8  1  0
  9 10  1  0
 14  9  1  0
  9  8  2  0
  8 11  1  0
 11 12  2  0
 12 13  1  0
 13 14  2  0
 10 15  1  0
 15 16  1  0
 20 15  1  0
 17 18  1  0
 18 19  1  0
 24 19  1  0
 19 20  2  0
 20 21  1  0
 21 22  2  0
 22 23  1  0
 23 24  2  0
 16 25  2  0
 17 16  1  0
 28 17  2  0
 25 26  1  0
 26 27  2  0
 27 28  1  0
  7 29  2  0
 11 30  1  0
 13 31  1  0
 31 32  2  0
 31 33  1  0
 22 34  1  0
 34 35  1  0
 34 36  2  0
 18 37  2  0
  1 38  1  0
 39 38  1  6
 39 40  1  0
 44 39  1  0
 40 41  1  0
 41 42  1  0
 42 43  1  0
 43 44  1  0
 43 45  1  6
 45 46  1  0
 42 47  1  1
 41 48  1  6
 40 49  1  1
 28 50  1  0
 51 50  1  1
 51 52  1  0
 56 51  1  0
 52 53  1  0
 53 54  1  0
 54 55  1  0
 55 56  1  0
 53 57  1  1
 57 58  1  0
 54 59  1  6
 55 60  1  1
 56 61  1  6
 24 62  1  0
 15 63  1  6
 10 64  1  1
M  END
>  <MOLREGNO>
1542998

>  <CHEMBLID>
CHEMBL2368547

>  <SYNONYMS>
Sennoside A

>  <MAX_PHASE>
0

>  <MOLWEIGHT>
862.74

>  <ALOGP>
.41

>  <PSA>
347.96

>  <HBA>
20

>  <HBD>
12

>  <RO5>
3

>  <RTB>
9

>  <RO3>
N

>  <ACD_MOST_APKA>
12.5

>  <ACD_MOST_BPKA>


>  <ACD_LOGP>
3.49

>  <ACD_LOGD>
3.49

>  <AROMATIC_RINGS>
4

>  <HEAVY_ATOMS>
62

>  <QED_WEIGHTED>
.11

>  <HBA_LIPINSKI>
20

>  <HBD_LIPINSKI>
12

>  <NUM_LIPINSKI_RO5_VIOLATIONS>
2

>  <MW_MONOISOTOPIC>
862.1956

>  <MOLECULAR_SPECIES>
NEUTRAL

>  <FULL_MOLFORMULA>
C42H38O20

$$$$

  CDK    9/16/09,9:20

 64 71  0  0  0  0  0  0  0  0999 V2000
    1.8368  -17.1998    0.0000 C   0  0  0  0  0  0  0  0  0  0  0  0
    2.5524  -17.6129    0.0000 C   0  0  0  0  0  0  0  0  0  0  0  0
    2.5518  -18.4355    0.0000 C   0  0  0  0  0  0  0  0  0  0  0  0
    1.8377  -18.8486    0.0000 C   0  0  0  0  0  0  0  0  0  0  0  0
    1.1242  -18.4392    0.0000 C   0  0  0  0  0  0  0  0  0  0  0  0
    0.4065  -18.8545    0.0000 C   0  0  0  0  0  0  0  0  0  0  0  0
   -0.3054  -18.4394    0.0000 C   0  0  0  0  0  0  0  0  0  0  0  0
   -1.0231  -18.8546    0.0000 C   0  0  0  0  0  0  0  0  0  0  0  0
   -1.7351  -18.4395    0.0000 C   0  0  0  0  0  0  0  0  0  0  0  0
   -1.7345  -17.6169    0.0000 C   0  0  0  0  0  0  0  0  0  0  0  0
   -1.0240  -17.2058    0.0000 C   0  0  0  0  0  0  0  0  0  0  0  0
   -0.3105  -17.6152    0.0000 C   0  0  0  0  0  0  0  0  0  0  0  0
    0.4072  -17.2000    0.0000 C   0  0  0  0  0  0  0  0  0  0  0  0
    1.1227  -17.6130    0.0000 C   0  0  0  0  0  0  0  0  0  0  0  0
    3.2665  -17.1997    0.0000 C   0  0  0  0  0  0  0  0  0  0  0  0
    3.9799  -17.6091    0.0000 O   0  0  0  0  0  0  0  0  0  0  0  0
    3.2650  -16.3735    0.0000 O   0  0  0  0  0  0  0  0  0  0  0  0
   -1.0180  -19.6787    0.0000 O   0  0  0  0  0  0  0  0  0  0  0  0
   -2.4477  -19.6789    0.0000 O   0  0  0  0  0  0  0  0  0  0  0  0
   -1.7357  -20.0940    0.0000 C   0  0  0  0  0  0  0  0  0  0  0  0
   -1.7327  -20.9145    0.0000 C   0  0  0  0  0  0  0  0  0  0  0  0
   -2.4504  -21.3298    0.0000 C   0  0  0  0  0  0  0  0  0  0  0  0
   -3.1603  -20.9183    0.0000 C   0  0  0  0  0  0  0  0  0  0  0  0
   -3.1617  -20.0921    0.0000 C   0  0  0  0  0  0  0  0  0  0  0  0
   -3.8773  -19.6790    0.0000 C   0  0  0  0  0  0  0  0  0  0  0  0
   -4.5950  -20.0943    0.0000 O   0  0  0  0  0  0  0  0  0  0  0  0
   -3.8779  -21.3335    0.0000 O   0  0  0  0  0  0  0  0  0  0  0  0
   -2.4453  -22.1539    0.0000 O   0  0  0  0  0  0  0  0  0  0  0  0
   -1.0171  -21.3275    0.0000 O   0  0  0  0  0  0  0  0  0  0  0  0
    0.4095  -19.6750    0.0000 O   0  0  0  0  0  0  0  0  0  0  0  0
    1.8392  -19.6748    0.0000 O   0  0  0  0  0  0  0  0  0  0  0  0
   -1.0218  -16.3775    0.0000 C   0  0  0  0  0  0  0  0  0  0  0  0
   -1.7374  -15.9645    0.0000 C   0  0  0  0  0  0  0  0  0  0  0  0
   -1.7404  -15.1440    0.0000 C   0  0  0  0  0  0  0  0  0  0  0  0
   -1.0227  -14.7287    0.0000 C   0  0  0  0  0  0  0  0  0  0  0  0
   -0.3092  -15.1381    0.0000 C   0  0  0  0  0  0  0  0  0  0  0  0
    0.4048  -14.7250    0.0000 C   0  0  0  0  0  0  0  0  0  0  0  0
    1.1204  -15.1380    0.0000 C   0  0  0  0  0  0  0  0  0  0  0  0
    1.8345  -14.7248    0.0000 C   0  0  0  0  0  0  0  0  0  0  0  0
    2.5500  -15.1378    0.0000 C   0  0  0  0  0  0  0  0  0  0  0  0
    2.5494  -15.9604    0.0000 C   0  0  0  0  0  0  0  0  0  0  0  0
    1.8353  -16.3736    0.0000 C   0  0  0  0  0  0  0  0  0  0  0  0
    1.1219  -15.9642    0.0000 C   0  0  0  0  0  0  0  0  0  0  0  0
    0.4078  -16.3774    0.0000 C   0  0  0  0  0  0  0  0  0  0  0  0
   -0.3078  -15.9643    0.0000 C   0  0  0  0  0  0  0  0  0  0  0  0
    1.8330  -13.8986    0.0000 O   0  0  0  0  0  0  0  0  0  0  0  0
    3.2626  -13.8985    0.0000 O   0  0  0  0  0  0  0  0  0  0  0  0
    2.5471  -13.4854    0.0000 C   0  0  0  0  0  0  0  0  0  0  0  0
    2.5477  -12.6628    0.0000 C   0  0  0  0  0  0  0  0  0  0  0  0
    3.2618  -12.2497    0.0000 C   0  0  0  0  0  0  0  0  0  0  0  0
    3.9752  -12.6591    0.0000 C   0  0  0  0  0  0  0  0  0  0  0  0
    3.9767  -13.4853    0.0000 C   0  0  0  0  0  0  0  0  0  0  0  0
    4.6923  -13.8983    0.0000 C   0  0  0  0  0  0  0  0  0  0  0  0
    5.4064  -13.4851    0.0000 O   0  0  0  0  0  0  0  0  0  0  0  0
    4.6893  -12.2459    0.0000 O   0  0  0  0  0  0  0  0  0  0  0  0
    3.2603  -11.4234    0.0000 O   0  0  0  0  0  0  0  0  0  0  0  0
    1.8321  -12.2498    0.0000 O   0  0  0  0  0  0  0  0  0  0  0  0
    0.4054  -13.9024    0.0000 O   0  0  0  0  0  0  0  0  0  0  0  0
   -1.0242  -13.9025    0.0000 O   0  0  0  0  0  0  0  0  0  0  0  0
   -2.4551  -16.3798    0.0000 C   0  0  0  0  0  0  0  0  0  0  0  0
   -2.4500  -17.2039    0.0000 O   0  0  0  0  0  0  0  0  0  0  0  0
   -3.1650  -15.9682    0.0000 O   0  0  0  0  0  0  0  0  0  0  0  0
    1.1167  -16.7792    0.0000 H   0  0  0  0  0  0  0  0  0  0  0  0
   -0.3125  -16.7833    0.0000 H   0  0  0  0  0  0  0  0  0  0  0  0
  2  3  2  0  0  0  0 
  3  4  1  0  0  0  0 
  4  5  2  0  0  0  0 
  5  6  1  0  0  0  0 
  6  7  1  0  0  0  0 
  7  8  1  0  0  0  0 
  8  9  2  0  0  0  0 
  9 10  1  0  0  0  0 
 10 11  2  0  0  0  0 
 11 12  1  0  0  0  0 
  7 12  2  0  0  0  0 
 12 13  1  0  0  0  0 
 13 14  1  0  0  0  0 
  5 14  1  0  0  0  0 
  1 14  2  0  0  0  0 
 15 16  2  0  0  0  0 
 15 17  1  0  0  0  0 
  2 15  1  0  0  0  0 
 19 20  1  0  0  0  0 
 20 21  1  0  0  0  0 
 21 22  1  0  0  0  0 
 22 23  1  0  0  0  0 
 23 24  1  0  0  0  0 
 19 24  1  0  0  0  0 
 25 26  1  0  0  0  0 
 24 25  1  1  0  0  0 
 23 27  1  6  0  0  0 
 22 28  1  1  0  0  0 
 21 29  1  6  0  0  0 
 20 18  1  1  0  0  0 
  8 18  1  0  0  0  0 
  6 30  2  0  0  0  0 
  4 31  1  0  0  0  0 
 32 33  1  0  0  0  0 
 33 34  2  0  0  0  0 
 34 35  1  0  0  0  0 
 35 36  2  0  0  0  0 
 36 37  1  0  0  0  0 
 37 38  1  0  0  0  0 
 38 39  1  0  0  0  0 
 39 40  2  0  0  0  0 
 40 41  1  0  0  0  0 
 41 42  2  0  0  0  0 
 42 43  1  0  0  0  0 
 38 43  2  0  0  0  0 
 43 44  1  0  0  0  0 
 44 45  1  0  0  0  0 
 36 45  1  0  0  0  0 
 32 45  2  0  0  0  0 
 47 48  1  0  0  0  0 
 48 49  1  0  0  0  0 
 49 50  1  0  0  0  0 
 50 51  1  0  0  0  0 
 51 52  1  0  0  0  0 
 47 52  1  0  0  0  0 
 53 54  1  0  0  0  0 
 52 53  1  1  0  0  0 
 51 55  1  6  0  0  0 
 50 56  1  1  0  0  0 
 49 57  1  6  0  0  0 
 48 46  1  1  0  0  0 
 39 46  1  0  0  0  0 
 37 58  2  0  0  0  0 
 35 59  1  0  0  0  0 
 60 61  2  0  0  0  0 
 60 62  1  0  0  0  0 
 33 60  1  0  0  0  0 
 13 44  1  0  0  0  0 
 13 63  1  1  0  0  0 
  1  2  1  0  0  0  0 
 44 64  1  6  0  0  0 
M  END
>  <MOLREGNO>
484479

>  <CHEMBLID>
CHEMBL445268

>  <SYNONYMS>
SENNOSIDE B

>  <MAX_PHASE>
0

>  <MOLWEIGHT>
862.74

>  <ALOGP>
.41

>  <PSA>
347.96

>  <HBA>
20

>  <HBD>
12

>  <RO5>
3

>  <RTB>
9

>  <RO3>
N

>  <ACD_MOST_APKA>
3.31

>  <ACD_MOST_BPKA>


>  <ACD_LOGP>
1.65

>  <ACD_LOGD>
-2.65

>  <AROMATIC_RINGS>
4

>  <HEAVY_ATOMS>
62

>  <QED_WEIGHTED>
.11

>  <HBA_LIPINSKI>
20

>  <HBD_LIPINSKI>
12

>  <NUM_LIPINSKI_RO5_VIOLATIONS>
2

>  <MW_MONOISOTOPIC>
862.1956

>  <MOLECULAR_SPECIES>
ACID

>  <FULL_MOLFORMULA>
C42H38O20

$$$$

          11290715562D 1   1.00000     0.00000     0

 40 45  0     0  0            999 V2000
   17.0543  -18.5980    0.0000 C   0  0  0  0  0  0           0  0  0
   17.7666  -19.0126    0.0000 C   0  0  0  0  0  0           0  0  0
   17.7666  -19.8375    0.0000 C   0  0  0  0  0  0           0  0  0
   17.0543  -20.2479    0.0000 C   0  0  0  0  0  0           0  0  0
   16.3379  -19.8375    0.0000 C   0  0  0  0  0  0           0  0  0
   15.6215  -20.2479    0.0000 C   0  0  0  0  0  0           0  0  0
   14.9051  -19.8375    0.0000 C   0  0  0  0  0  0           0  0  0
   14.1928  -20.2479    0.0000 C   0  0  0  0  0  0           0  0  0
   13.4765  -19.8375    0.0000 C   0  0  0  0  0  0           0  0  0
   13.4765  -19.0126    0.0000 C   0  0  0  0  0  0           0  0  0
   14.1928  -18.5980    0.0000 C   0  0  0  0  0  0           0  0  0
   14.9051  -19.0126    0.0000 C   0  0  0  0  0  0           0  0  0
   15.6215  -18.5980    0.0000 C   0  0  3  0  0  0           0  0  0
   16.3379  -19.0126    0.0000 C   0  0  0  0  0  0           0  0  0
   18.4787  -18.5980    0.0000 C   0  0  0  0  0  0           0  0  0
   18.4787  -17.7730    0.0000 O   0  0  0  0  0  0           0  0  0
   19.1910  -19.0126    0.0000 O   0  0  0  0  0  0           0  0  0
   15.6215  -21.0729    0.0000 O   0  0  0  0  0  0           0  0  0
   14.1928  -21.0729    0.0000 O   0  0  0  0  0  0           0  0  0
   17.0543  -21.0729    0.0000 O   0  0  0  0  0  0           0  0  0
   14.1928  -17.7730    0.0000 C   0  0  0  0  0  0           0  0  0
   13.4765  -17.3626    0.0000 C   0  0  0  0  0  0           0  0  0
   13.4765  -16.5377    0.0000 C   0  0  0  0  0  0           0  0  0
   14.1928  -16.1231    0.0000 C   0  0  0  0  0  0           0  0  0
   14.9051  -16.5377    0.0000 C   0  0  0  0  0  0           0  0  0
   15.6215  -16.1231    0.0000 C   0  0  0  0  0  0           0  0  0
   16.3379  -16.5377    0.0000 C   0  0  0  0  0  0           0  0  0
   17.0543  -16.1231    0.0000 C   0  0  0  0  0  0           0  0  0
   17.7666  -16.5377    0.0000 C   0  0  0  0  0  0           0  0  0
   17.7666  -17.3626    0.0000 C   0  0  0  0  0  0           0  0  0
   17.0543  -17.7730    0.0000 C   0  0  0  0  0  0           0  0  0
   16.3379  -17.3626    0.0000 C   0  0  0  0  0  0           0  0  0
   15.6215  -17.7730    0.0000 C   0  0  3  0  0  0           0  0  0
   14.9051  -17.3626    0.0000 C   0  0  0  0  0  0           0  0  0
   15.6215  -15.2981    0.0000 O   0  0  0  0  0  0           0  0  0
   17.0543  -15.2981    0.0000 O   0  0  0  0  0  0           0  0  0
   14.1928  -15.2981    0.0000 O   0  0  0  0  0  0           0  0  0
   12.7642  -17.7730    0.0000 C   0  0  0  0  0  0           0  0  0
   12.7642  -18.5980    0.0000 O   0  0  0  0  0  0           0  0  0
   12.0520  -17.3626    0.0000 O   0  0  0  0  0  0           0  0  0
  1  2  1  0     0  0
  2  3  2  0     0  0
  3  4  1  0     0  0
  4  5  2  0     0  0
  5  6  1  0     0  0
  6  7  1  0     0  0
  7  8  1  0     0  0
  8  9  2  0     0  0
  9 10  1  0     0  0
 10 11  2  0     0  0
 11 12  1  0     0  0
  7 12  2  0     0  0
 12 13  1  0     0  0
 13 14  1  0     0  0
  5 14  1  0     0  0
  1 14  2  0     0  0
 15 16  2  0     0  0
 15 17  1  0     0  0
  2 15  1  0     0  0
  6 18  2  0     0  0
  8 19  1  0     0  0
  4 20  1  0     0  0
 21 22  1  0     0  0
 22 23  2  0     0  0
 23 24  1  0     0  0
 24 25  2  0     0  0
 25 26  1  0     0  0
 26 27  1  0     0  0
 27 28  1  0     0  0
 28 29  2  0     0  0
 29 30  1  0     0  0
 30 31  2  0     0  0
 31 32  1  0     0  0
 27 32  2  0     0  0
 32 33  1  0     0  0
 33 34  1  0     0  0
 25 34  1  0     0  0
 21 34  2  0     0  0
 26 35  2  0     0  0
 28 36  1  0     0  0
 24 37  1  0     0  0
 38 39  2  0     0  0
 38 40  1  0     0  0
 22 38  1  0     0  0
 13 33  1  0     0  0
M  END
>  <MOLREGNO>
378235

>  <CHEMBLID>
CHEMBL227796

>  <SYNONYMS>
SENNIDIN A

>  <MAX_PHASE>
0

>  <MOLWEIGHT>
538.46

>  <ALOGP>
4.27

>  <PSA>
189.65

>  <HBA>
10

>  <HBD>
6

>  <RO5>
2

>  <RTB>
3

>  <RO3>
N

>  <ACD_MOST_APKA>
3.26

>  <ACD_MOST_BPKA>


>  <ACD_LOGP>
9.29

>  <ACD_LOGD>
4.4

>  <AROMATIC_RINGS>
4

>  <HEAVY_ATOMS>
40

>  <QED_WEIGHTED>
.22

>  <HBA_LIPINSKI>
10

>  <HBD_LIPINSKI>
6

>  <NUM_LIPINSKI_RO5_VIOLATIONS>
1

>  <MW_MONOISOTOPIC>
538.09

>  <MOLECULAR_SPECIES>
ACID

>  <FULL_MOLFORMULA>
C30H18O10

$$$$

  SciTegic12231509382D

 10 10  0  0  0  0            999 V2000
   13.0736   -7.0958    0.0000 C   0  0
   13.0724   -7.9232    0.0000 C   0  0
   13.7872   -8.3360    0.0000 N   0  0
   14.5037   -7.9227    0.0000 C   0  0
   14.5008   -7.0922    0.0000 C   0  0
   13.7854   -6.6830    0.0000 N   0  0
   15.2137   -6.6770    0.0000 C   0  0
   12.3590   -6.6835    0.0000 C   0  0
   12.3576   -8.3351    0.0000 C   0  0
   15.2188   -8.3341    0.0000 C   0  0
  2  3  1  0
  5  6  2  0
  6  1  1  0
  1  2  2  0
  5  7  1  0
  3  4  2  0
  1  8  1  0
  2  9  1  0
  4  5  1  0
  4 10  1  0
M  END
>  <MOLREGNO>
104813

>  <CHEMBLID>
CHEMBL303697

>  <SYNONYMS>
Tetramethylpyrazine | 2,3,5,6-Tetramethylpyrazine | 2,3,5,6-Tetramethyl-Pyrazine | Ligustrazine | Ligustrazine Hydrochloride

>  <MAX_PHASE>
0

>  <MOLWEIGHT>
136.19

>  <ALOGP>
.66

>  <PSA>
25.78

>  <HBA>
2

>  <HBD>
0

>  <RO5>
0

>  <RTB>
0

>  <RO3>
Y

>  <ACD_MOST_APKA>
12.7

>  <ACD_MOST_BPKA>
7.01

>  <ACD_LOGP>
3.64

>  <ACD_LOGD>
3.48

>  <AROMATIC_RINGS>
1

>  <HEAVY_ATOMS>
10

>  <QED_WEIGHTED>
.52

>  <HBA_LIPINSKI>
2

>  <HBD_LIPINSKI>
0

>  <NUM_LIPINSKI_RO5_VIOLATIONS>
0

>  <MW_MONOISOTOPIC>
136.1

>  <MOLECULAR_SPECIES>
NEUTRAL

>  <FULL_MOLFORMULA>
C8H12N2

$$$$

  Mrv0541 05211314572D          

 16 16  0  0  0  0            999 V2000
    1.1278    0.5087    0.0000 C   0  0  0  0  0  0  0  0  0  0  0  0
    1.1278   -0.3163    0.0000 C   0  0  0  0  0  0  0  0  0  0  0  0
    1.8423   -0.7288    0.0000 C   0  0  0  0  0  0  0  0  0  0  0  0
    1.8423   -1.5538    0.0000 C   0  0  0  0  0  0  0  0  0  0  0  0
    2.5568   -1.9663    0.0000 C   0  0  0  0  0  0  0  0  0  0  0  0
    2.5568   -2.7913    0.0000 C   0  0  0  0  0  0  0  0  0  0  0  0
    3.2712   -3.2038    0.0000 O   0  0  0  0  0  0  0  0  0  0  0  0
    3.2712   -4.0288    0.0000 C   0  0  0  0  0  0  0  0  0  0  0  0
    1.8423   -3.2038    0.0000 C   0  0  0  0  0  0  0  0  0  0  0  0
    1.8423   -4.0288    0.0000 O   0  0  0  0  0  0  0  0  0  0  0  0
    1.1278   -2.7913    0.0000 C   0  0  0  0  0  0  0  0  0  0  0  0
    1.1278   -1.9663    0.0000 C   0  0  0  0  0  0  0  0  0  0  0  0
    1.8423    0.9212    0.0000 O   0  0  0  0  0  0  0  0  0  0  0  0
    0.4134    0.9212    0.0000 O   0  0  0  0  0  0  0  0  0  0  0  0
    0.4134    1.7462    0.0000 C   0  0  0  0  0  0  0  0  0  0  0  0
   -0.3011    2.1587    0.0000 C   0  0  0  0  0  0  0  0  0  0  0  0
  2  3  2  0  0  0  0
  3  4  1  0  0  0  0
  4  5  1  0  0  0  0
  5  6  2  0  0  0  0
  6  7  1  0  0  0  0
  7  8  1  0  0  0  0
  6  9  1  0  0  0  0
  9 10  1  0  0  0  0
  9 11  2  0  0  0  0
 11 12  1  0  0  0  0
  4 12  2  0  0  0  0
  1 13  2  0  0  0  0
  1 14  1  0  0  0  0
 14 15  1  0  0  0  0
  1  2  1  0  0  0  0
 15 16  1  0  0  0  0
M  END
>  <MOLREGNO>
47436

>  <CHEMBLID>
CHEMBL286796

>  <SYNONYMS>
Ethyl Ferulate

>  <MAX_PHASE>
0

>  <MOLWEIGHT>
222.24

>  <ALOGP>
2.24

>  <PSA>
55.76

>  <HBA>
4

>  <HBD>
1

>  <RO5>
0

>  <RTB>
5

>  <RO3>
N

>  <ACD_MOST_APKA>
8.88

>  <ACD_MOST_BPKA>


>  <ACD_LOGP>
2.72

>  <ACD_LOGD>
2.71

>  <AROMATIC_RINGS>
1

>  <HEAVY_ATOMS>
16

>  <QED_WEIGHTED>
.61

>  <HBA_LIPINSKI>
4

>  <HBD_LIPINSKI>
1

>  <NUM_LIPINSKI_RO5_VIOLATIONS>
0

>  <MW_MONOISOTOPIC>
222.0892

>  <MOLECULAR_SPECIES>
NEUTRAL

>  <FULL_MOLFORMULA>
C12H14O4

$$$$

  CDK    9/16/09,9:19

 16 17  0  0  0  0  0  0  0  0999 V2000
   -4.3700   -9.3784    0.0000 C   0  0  0  0  0  0  0  0  0  0  0  0
   -4.3711  -10.2053    0.0000 C   0  0  0  0  0  0  0  0  0  0  0  0
   -3.6567  -10.6179    0.0000 C   0  0  0  0  0  0  0  0  0  0  0  0
   -3.6585   -8.9658    0.0000 C   0  0  0  0  0  0  0  0  0  0  0  0
   -2.9434   -9.3748    0.0000 C   0  0  0  0  0  0  0  0  0  0  0  0
   -2.9432  -10.2007    0.0000 C   0  0  0  0  0  0  0  0  0  0  0  0
   -2.1576  -10.4558    0.0000 C   0  0  0  0  0  0  0  0  0  0  0  0
   -1.6721   -9.7873    0.0000 O   0  0  0  0  0  0  0  0  0  0  0  0
   -2.1580   -9.1193    0.0000 C   0  0  0  0  0  0  0  0  0  0  0  0
   -2.1656   -8.2914    0.0000 C   0  0  0  0  0  0  0  0  0  0  0  0
   -1.4552   -7.8726    0.0000 C   0  0  0  0  0  0  0  0  0  0  0  0
   -0.7374   -8.2784    0.0000 C   0  0  0  0  0  0  0  0  0  0  0  0
   -0.0271   -7.8597    0.0000 C   0  0  0  0  0  0  0  0  0  0  0  0
   -1.9025  -11.2399    0.0000 O   0  0  0  0  0  0  0  0  0  0  0  0
   -5.0855  -10.6170    0.0000 O   0  0  0  0  0  0  0  0  0  0  0  0
   -3.6545  -11.4425    0.0000 O   0  0  0  0  0  0  0  0  0  0  0  0
  6  7  1  0  0  0  0 
  7  8  1  0  0  0  0 
  8  9  1  0  0  0  0 
  9  5  1  0  0  0  0 
  4  1  1  0  0  0  0 
  9 10  2  0  0  0  0 
  5  6  2  0  0  0  0 
 10 11  1  0  0  0  0 
 11 12  1  0  0  0  0 
  2  3  1  0  0  0  0 
 12 13  1  0  0  0  0 
  3  6  1  0  0  0  0 
  7 14  2  0  0  0  0 
  1  2  1  0  0  0  0 
  2 15  1  6  0  0  0 
  5  4  1  0  0  0  0 
  3 16  1  1  0  0  0 
M  END
>  <MOLREGNO>
481497

>  <CHEMBLID>
CHEMBL499542

>  <SYNONYMS>
Senkyunolide I

>  <MAX_PHASE>
0

>  <MOLWEIGHT>
224.25

>  <ALOGP>
1.32

>  <PSA>
66.76

>  <HBA>
4

>  <HBD>
2

>  <RO5>
0

>  <RTB>
2

>  <RO3>
N

>  <ACD_MOST_APKA>
12.78

>  <ACD_MOST_BPKA>


>  <ACD_LOGP>
-.93

>  <ACD_LOGD>
-.93

>  <AROMATIC_RINGS>
0

>  <HEAVY_ATOMS>
16

>  <QED_WEIGHTED>
.69

>  <HBA_LIPINSKI>
4

>  <HBD_LIPINSKI>
2

>  <NUM_LIPINSKI_RO5_VIOLATIONS>
0

>  <MW_MONOISOTOPIC>
224.1049

>  <MOLECULAR_SPECIES>
NEUTRAL

>  <FULL_MOLFORMULA>
C12H16O4

$$$$

  CDK    9/16/09,9:19

 14 15  0  0  0  0  0  0  0  0999 V2000
    5.4185   -3.4108    0.0000 C   0  0  0  0  0  0  0  0  0  0  0  0
    5.4174   -4.2368    0.0000 C   0  0  0  0  0  0  0  0  0  0  0  0
    6.1310   -4.6490    0.0000 C   0  0  0  0  0  0  0  0  0  0  0  0
    6.1292   -2.9988    0.0000 C   0  0  0  0  0  0  0  0  0  0  0  0
    6.8434   -3.4072    0.0000 C   0  0  0  0  0  0  0  0  0  0  0  0
    6.8436   -4.2322    0.0000 C   0  0  0  0  0  0  0  0  0  0  0  0
    7.6284   -4.4870    0.0000 C   0  0  0  0  0  0  0  0  0  0  0  0
    8.1132   -3.8193    0.0000 O   0  0  0  0  0  0  0  0  0  0  0  0
    7.6280   -3.1521    0.0000 C   0  0  0  0  0  0  0  0  0  0  0  0
    7.6204   -2.3253    0.0000 C   0  0  0  0  0  0  0  0  0  0  0  0
    8.3299   -1.9070    0.0000 C   0  0  0  0  0  0  0  0  0  0  0  0
    9.0468   -2.3122    0.0000 C   0  0  0  0  0  0  0  0  0  0  0  0
    9.7563   -1.8939    0.0000 C   0  0  0  0  0  0  0  0  0  0  0  0
    7.8831   -5.2703    0.0000 O   0  0  0  0  0  0  0  0  0  0  0  0
  1  2  1  0  0  0  0 
  5  4  1  0  0  0  0 
  6  7  1  0  0  0  0 
  7  8  1  0  0  0  0 
  8  9  1  0  0  0  0 
  9  5  1  0  0  0  0 
  4  1  1  0  0  0  0 
  9 10  2  0  0  0  0 
  5  6  2  0  0  0  0 
 10 11  1  0  0  0  0 
 11 12  1  0  0  0  0 
  2  3  2  0  0  0  0 
 12 13  1  0  0  0  0 
  3  6  1  0  0  0  0 
  7 14  2  0  0  0  0 
M  END
>  <MOLREGNO>
481496

>  <CHEMBLID>
CHEMBL481246

>  <SYNONYMS>
(Z)-Ligustilide

>  <MAX_PHASE>
0

>  <MOLWEIGHT>
190.24

>  <ALOGP>
2.94

>  <PSA>
26.3

>  <HBA>
2

>  <HBD>
0

>  <RO5>
0

>  <RTB>
2

>  <RO3>
Y

>  <ACD_MOST_APKA>


>  <ACD_MOST_BPKA>


>  <ACD_LOGP>
1.71

>  <ACD_LOGD>
1.71

>  <AROMATIC_RINGS>
0

>  <HEAVY_ATOMS>
14

>  <QED_WEIGHTED>
.63

>  <HBA_LIPINSKI>
2

>  <HBD_LIPINSKI>
0

>  <NUM_LIPINSKI_RO5_VIOLATIONS>
0

>  <MW_MONOISOTOPIC>
190.0994

>  <MOLECULAR_SPECIES>


>  <FULL_MOLFORMULA>
C12H14O2

$$$$

  SciTegic03291108482D

 24 26  0  0  1  0            999 V2000
   -0.1707    1.0274    0.0000 O   0  0
   -2.6657    2.2075    0.0000 O   0  0
    1.2924    2.7194    0.0000 O   0  0
   -3.9250    2.8830    0.0000 O   0  0
    0.5396    3.9340    0.0000 O   0  0
   -1.4065    1.5320    0.0000 C   0  0
   -0.9719    0.8308    0.0000 C   0  0
   -0.1101    1.8502    0.0000 C   0  0  2  0  0  0
   -2.2311    1.5063    0.0000 C   0  0
    0.5911    2.2848    0.0000 C   0  0
   -0.8739    2.1621    0.0000 C   0  0
   -2.6211    0.7793    0.0000 C   0  0
   -1.3619    0.1038    0.0000 C   0  0
   -2.1865    0.0780    0.0000 C   0  0
   -3.4457    0.7535    0.0000 C   0  0
   -3.4903    2.1817    0.0000 C   0  0
   -3.8803    1.4547    0.0000 C   0  0
    1.0257    1.5836    0.0000 C   0  0
    0.1565    2.9861    0.0000 C   0  0
    1.2666    3.5440    0.0000 C   0  0
    1.9678    3.9786    0.0000 C   0  0
    1.9421    4.8032    0.0000 C   0  0
    2.6948    3.5886    0.0000 C   0  0
    1.2151    5.1932    0.0000 C   0  0
  1  7  1  0
  1  8  1  0
  2  9  1  0
  2 16  1  0
  3 10  1  0
  3 20  1  0
  4 16  2  0
  5 20  2  0
  6  7  2  0
  6  9  1  0
  6 11  1  0
  7 13  1  0
  8 10  1  1
  8 11  1  0
  9 12  2  0
 10 18  1  0
 10 19  1  0
 12 14  1  0
 12 15  1  0
 13 14  2  0
 15 17  2  0
 16 17  1  0
 20 21  1  0
 21 22  2  0
 21 23  1  0
 22 24  1  0
M  END
>  <MOLREGNO>
747951

>  <CHEMBLID>
CHEMBL1324067

>  <SYNONYMS>
Columbianadin

>  <MAX_PHASE>
0

>  <MOLWEIGHT>
328.36

>  <ALOGP>
3.96

>  <PSA>
61.83

>  <HBA>
5

>  <HBD>
0

>  <RO5>
0

>  <RTB>
4

>  <RO3>
N

>  <ACD_MOST_APKA>


>  <ACD_MOST_BPKA>


>  <ACD_LOGP>
4.17

>  <ACD_LOGD>
4.17

>  <AROMATIC_RINGS>
1

>  <HEAVY_ATOMS>
24

>  <QED_WEIGHTED>
.48

>  <HBA_LIPINSKI>
5

>  <HBD_LIPINSKI>
0

>  <NUM_LIPINSKI_RO5_VIOLATIONS>
0

>  <MW_MONOISOTOPIC>
328.1311

>  <MOLECULAR_SPECIES>


>  <FULL_MOLFORMULA>
C19H20O5

$$$$

  CDK    9/16/09,9:20

 19 21  0  0  0  0  0  0  0  0999 V2000
   10.9807   -5.4194    0.0000 C   0  0  0  0  0  0  0  0  0  0  0  0
   10.9807   -6.2479    0.0000 C   0  0  0  0  0  0  0  0  0  0  0  0
   11.6943   -6.6599    0.0000 C   0  0  0  0  0  0  0  0  0  0  0  0
   11.6943   -5.0029    0.0000 C   0  0  0  0  0  0  0  0  0  0  0  0
   12.4123   -5.4194    0.0000 C   0  0  0  0  0  0  0  0  0  0  0  0
   12.4088   -6.2479    0.0000 C   0  0  0  0  0  0  0  0  0  0  0  0
   13.1206   -6.6628    0.0000 C   0  0  0  0  0  0  0  0  0  0  0  0
   13.1277   -5.0059    0.0000 C   0  0  0  0  0  0  0  0  0  0  0  0
   13.8439   -5.4255    0.0000 C   0  0  0  0  0  0  0  0  0  0  0  0
   13.8419   -6.2504    0.0000 C   0  0  0  0  0  0  0  0  0  0  0  0
   14.6259   -6.5074    0.0000 C   0  0  0  0  0  0  0  0  0  0  0  0
   15.1124   -5.8411    0.0000 C   0  0  0  0  0  0  0  0  0  0  0  0
   14.6292   -5.1727    0.0000 O   0  0  0  0  0  0  0  0  0  0  0  0
   15.9363   -5.8432    0.0000 O   0  0  0  0  0  0  0  0  0  0  0  0
   14.8784   -7.2916    0.0000 C   0  0  0  0  0  0  0  0  0  0  0  0
   11.6940   -7.4838    0.0000 C   0  0  0  0  0  0  0  0  0  0  0  0
   12.4043   -4.5955    0.0000 C   0  0  0  0  0  0  0  0  0  0  0  0
   13.8369   -4.6001    0.0000 H   0  0  0  0  0  0  0  0  0  0  0  0
   13.8369   -7.0718    0.0000 H   0  0  0  0  0  0  0  0  0  0  0  0
  9 10  1  0  0  0  0 
  3  6  1  0  0  0  0 
  5  4  1  0  0  0  0 
  5  6  1  0  0  0  0 
  1  2  1  0  0  0  0 
 10 11  1  0  0  0  0 
 11 12  1  0  0  0  0 
 12 13  1  0  0  0  0 
  9 13  1  0  0  0  0 
  1  4  1  0  0  0  0 
 12 14  2  0  0  0  0 
  2  3  1  0  0  0  0 
 11 15  2  0  0  0  0 
  5  8  1  0  0  0  0 
  3 16  1  1  0  0  0 
  6  7  2  0  0  0  0 
  5 17  1  1  0  0  0 
  7 10  1  0  0  0  0 
  9 18  1  6  0  0  0 
  9  8  1  0  0  0  0 
 10 19  1  6  0  0  0 
M  END
>  <MOLREGNO>
225907

>  <CHEMBLID>
CHEMBL136356

>  <SYNONYMS>
Eupatal | Helenine | Alantolactone

>  <MAX_PHASE>
0

>  <MOLWEIGHT>
232.32

>  <ALOGP>
3.31

>  <PSA>
26.3

>  <HBA>
2

>  <HBD>
0

>  <RO5>
0

>  <RTB>
0

>  <RO3>
N

>  <ACD_MOST_APKA>


>  <ACD_MOST_BPKA>


>  <ACD_LOGP>
2.55

>  <ACD_LOGD>
2.55

>  <AROMATIC_RINGS>
0

>  <HEAVY_ATOMS>
17

>  <QED_WEIGHTED>
.36

>  <HBA_LIPINSKI>
2

>  <HBD_LIPINSKI>
0

>  <NUM_LIPINSKI_RO5_VIOLATIONS>
0

>  <MW_MONOISOTOPIC>
232.1463

>  <MOLECULAR_SPECIES>


>  <FULL_MOLFORMULA>
C15H20O2

$$$$

  CDK    9/16/09,9:20

 20 22  0  0  0  0  0  0  0  0999 V2000
   -4.2632   -0.3381    0.0000 C   0  0  0  0  0  0  0  0  0  0  0  0
   -4.2632   -1.1652    0.0000 C   0  0  0  0  0  0  0  0  0  0  0  0
   -3.5509   -1.5764    0.0000 C   0  0  0  0  0  0  0  0  0  0  0  0
   -3.5509    0.0776    0.0000 C   0  0  0  0  0  0  0  0  0  0  0  0
   -2.8341   -0.3381    0.0000 C   0  0  0  0  0  0  0  0  0  0  0  0
   -2.8330   -1.1652    0.0000 C   0  0  0  0  0  0  0  0  0  0  0  0
   -2.1201   -1.5755    0.0000 C   0  0  0  0  0  0  0  0  0  0  0  0
   -2.1223    0.0786    0.0000 C   0  0  0  0  0  0  0  0  0  0  0  0
   -1.4049   -0.3363    0.0000 C   0  0  0  0  0  0  0  0  0  0  0  0
   -1.4057   -1.1644    0.0000 C   0  0  0  0  0  0  0  0  0  0  0  0
   -0.6184   -1.4211    0.0000 C   0  0  0  0  0  0  0  0  0  0  0  0
   -0.1309   -0.7516    0.0000 C   0  0  0  0  0  0  0  0  0  0  0  0
   -0.6171   -0.0813    0.0000 O   0  0  0  0  0  0  0  0  0  0  0  0
   -2.8422    0.4844    0.0000 C   0  0  0  0  0  0  0  0  0  0  0  0
   -3.5524   -2.3989    0.0000 C   0  0  0  0  0  0  0  0  0  0  0  0
    0.6915   -0.7524    0.0000 O   0  0  0  0  0  0  0  0  0  0  0  0
   -0.3651   -2.2036    0.0000 C   0  0  0  0  0  0  0  0  0  0  0  0
   -2.8422   -1.9831    0.0000 H   0  0  0  0  0  0  0  0  0  0  0  0
   -1.4119    0.4889    0.0000 H   0  0  0  0  0  0  0  0  0  0  0  0
   -1.4119   -1.9831    0.0000 H   0  0  0  0  0  0  0  0  0  0  0  0
  3  6  1  0  0  0  0 
  5  4  1  0  0  0  0 
  5  6  1  0  0  0  0 
  1  2  1  0  0  0  0 
 10 11  1  0  0  0  0 
 11 12  1  0  0  0  0 
 12 13  1  0  0  0  0 
 13  9  1  0  0  0  0 
  1  4  1  0  0  0  0 
  5 14  1  1  0  0  0 
  2  3  1  0  0  0  0 
  3 15  2  0  0  0  0 
  5  8  1  0  0  0  0 
 12 16  2  0  0  0  0 
  6  7  1  0  0  0  0 
 11 17  2  0  0  0  0 
  7 10  1  0  0  0  0 
  6 18  1  6  0  0  0 
  9  8  1  0  0  0  0 
  9 19  1  6  0  0  0 
  9 10  1  0  0  0  0 
 10 20  1  6  0  0  0 
M  END
>  <MOLREGNO>
225864

>  <CHEMBLID>
CHEMBL137803

>  <SYNONYMS>
Iso-Alantolacton | Isoalantolactone

>  <MAX_PHASE>
0

>  <MOLWEIGHT>
232.32

>  <ALOGP>
3.37

>  <PSA>
26.3

>  <HBA>
2

>  <HBD>
0

>  <RO5>
0

>  <RTB>
0

>  <RO3>
N

>  <ACD_MOST_APKA>


>  <ACD_MOST_BPKA>


>  <ACD_LOGP>
2.58

>  <ACD_LOGD>
2.58

>  <AROMATIC_RINGS>
0

>  <HEAVY_ATOMS>
17

>  <QED_WEIGHTED>
.36

>  <HBA_LIPINSKI>
2

>  <HBD_LIPINSKI>
0

>  <NUM_LIPINSKI_RO5_VIOLATIONS>
0

>  <MW_MONOISOTOPIC>
232.1463

>  <MOLECULAR_SPECIES>


>  <FULL_MOLFORMULA>
C15H20O2

$$$$

  CDK    10/7/09,10:42

 40 45  0  0  0  0  0  0  0  0999 V2000
    5.2696  -13.1638    0.0000 C   0  0  0  0  0  0  0  0  0  0  0  0
    4.4237  -13.2297    0.0000 C   0  0  0  0  0  0  0  0  0  0  0  0
    3.9884  -13.9019    0.0000 O   0  0  0  0  0  0  0  0  0  0  0  0
    5.8236  -13.7735    0.0000 C   0  0  0  0  0  0  0  0  0  0  0  0
    4.2058  -14.6756    0.0000 C   0  0  0  0  0  0  0  0  0  0  0  0
    4.0024  -12.5236    0.0000 O   0  0  0  0  0  0  0  0  0  0  0  0
    6.6110  -13.5485    0.0000 O   0  0  0  0  0  0  0  0  0  0  0  0
    6.8099  -12.7483    0.0000 C   0  0  0  0  0  0  0  0  0  0  0  0
    7.5972  -12.5232    0.0000 C   0  0  0  0  0  0  0  0  0  0  0  0
    6.2171  -12.1774    0.0000 O   0  0  0  0  0  0  0  0  0  0  0  0
    4.2658  -15.4932    0.0000 C   0  0  0  0  0  0  0  0  0  0  0  0
    3.3843  -14.7327    0.0000 C   0  0  0  0  0  0  0  0  0  0  0  0
    5.6815  -14.5744    0.0000 C   0  0  0  0  0  0  0  0  0  0  0  0
    4.9317  -14.9857    0.0000 C   0  0  0  0  0  0  0  0  0  0  0  0
    4.9108  -15.8332    0.0000 C   0  0  0  0  0  0  0  0  0  0  0  0
    5.6362  -16.2803    0.0000 C   0  0  0  0  0  0  0  0  0  0  0  0
    6.4102  -15.0154    0.0000 C   0  0  0  0  0  0  0  0  0  0  0  0
    6.3835  -15.8675    0.0000 C   0  0  0  0  0  0  0  0  0  0  0  0
    7.8813  -15.0612    0.0000 C   0  0  0  0  0  0  0  0  0  0  0  0
    7.1553  -14.6105    0.0000 C   0  0  0  0  0  0  0  0  0  0  0  0
    7.8545  -15.9132    0.0000 C   0  0  0  0  0  0  0  0  0  0  0  0
    7.1067  -16.3092    0.0000 C   0  0  0  0  0  0  0  0  0  0  0  0
    7.0719  -17.1539    0.0000 C   0  0  0  0  0  0  0  0  0  0  0  0
    7.7908  -17.6086    0.0000 C   0  0  0  0  0  0  0  0  0  0  0  0
    8.5433  -17.2126    0.0000 O   0  0  0  0  0  0  0  0  0  0  0  0
    8.5769  -16.3619    0.0000 C   0  0  0  0  0  0  0  0  0  0  0  0
    9.3001  -15.9748    0.0000 C   0  0  0  0  0  0  0  0  0  0  0  0
   10.0376  -16.3325    0.0000 C   0  0  0  0  0  0  0  0  0  0  0  0
   10.6059  -15.7463    0.0000 C   0  0  0  0  0  0  0  0  0  0  0  0
   10.2219  -15.0198    0.0000 O   0  0  0  0  0  0  0  0  0  0  0  0
    9.4155  -15.1613    0.0000 C   0  0  0  0  0  0  0  0  0  0  0  0
    7.7603  -18.4302    0.0000 O   0  0  0  0  0  0  0  0  0  0  0  0
    8.5259  -15.4423    0.0000 C   0  0  0  0  0  0  0  0  0  0  0  0
    5.0755  -14.1733    0.0000 H   0  0  0  0  0  0  0  0  0  0  0  0
    5.6188  -17.1026    0.0000 O   0  0  0  0  0  0  0  0  0  0  0  0
    5.6411  -15.5142    0.0000 C   0  0  0  0  0  0  0  0  0  0  0  0
    6.3246  -16.8020    0.0000 O   0  0  0  0  0  0  0  0  0  0  0  0
    6.5353  -17.7794    0.0000 H   0  0  0  0  0  0  0  0  0  0  0  0
    6.3849  -14.1556    0.0000 C   0  0  0  0  0  0  0  0  0  0  0  0
    7.1141  -15.4255    0.0000 H   0  0  0  0  0  0  0  0  0  0  0  0
  1  2  1  0  0  0  0 
  2  3  1  0  0  0  0 
  1  4  1  0  0  0  0 
 14  5  1  0  0  0  0 
  5  3  1  0  0  0  0 
  4 13  1  0  0  0  0 
  2  6  2  0  0  0  0 
  4  7  1  6  0  0  0 
  7  8  1  0  0  0  0 
  8  9  1  0  0  0  0 
  8 10  2  0  0  0  0 
  5 11  1  0  0  0  0 
  5 12  1  0  0  0  0 
 13 14  1  0  0  0  0 
 13 17  1  0  0  0  0 
 14 15  1  0  0  0  0 
 15 16  1  0  0  0  0 
 16 18  1  0  0  0  0 
 17 18  1  0  0  0  0 
 17 20  1  0  0  0  0 
 18 22  1  0  0  0  0 
 21 19  1  0  0  0  0 
 19 20  1  0  0  0  0 
 21 22  1  0  0  0  0 
 21 26  1  0  0  0  0 
 22 23  1  0  0  0  0 
 23 24  1  0  0  0  0 
 24 25  1  0  0  0  0 
 25 26  1  0  0  0  0 
 27 28  1  0  0  0  0 
 28 29  2  0  0  0  0 
 29 30  1  0  0  0  0 
 30 31  1  0  0  0  0 
 31 27  2  0  0  0  0 
 26 27  1  1  0  0  0 
 24 32  2  0  0  0  0 
 21 33  1  6  0  0  0 
 14 34  1  6  0  0  0 
 16 35  2  0  0  0  0 
 18 36  1  1  0  0  0 
 23 37  1  0  0  0  0 
 22 37  1  1  0  0  0 
 23 38  1  6  0  0  0 
 13 39  1  1  0  0  0 
 17 40  1  6  0  0  0 
M  END
>  <MOLREGNO>
522561

>  <CHEMBLID>
CHEMBL500167

>  <SYNONYMS>
Nomilin

>  <MAX_PHASE>
0

>  <MOLWEIGHT>
514.56

>  <ALOGP>
2.15

>  <PSA>
121.63

>  <HBA>
8

>  <HBD>
0

>  <RO5>
1

>  <RTB>
3

>  <RO3>
N

>  <ACD_MOST_APKA>


>  <ACD_MOST_BPKA>


>  <ACD_LOGP>
1.72

>  <ACD_LOGD>
1.72

>  <AROMATIC_RINGS>
1

>  <HEAVY_ATOMS>
37

>  <QED_WEIGHTED>
.56

>  <HBA_LIPINSKI>
9

>  <HBD_LIPINSKI>
0

>  <NUM_LIPINSKI_RO5_VIOLATIONS>
0

>  <MW_MONOISOTOPIC>
514.2203

>  <MOLECULAR_SPECIES>


>  <FULL_MOLFORMULA>
C28H34O9

$$$$

  SciTegic12231509382D

 24 28  0  0  0  0            999 V2000
   -4.8630   -5.1662    0.0000 C   0  0
   -4.8630   -5.9884    0.0000 C   0  0
   -4.1533   -6.3954    0.0000 C   0  0
   -4.1533   -4.7509    0.0000 C   0  0
   -3.4437   -5.1662    0.0000 C   0  0
   -3.4438   -5.9895    0.0000 C   0  0
   -2.6607   -6.2439    0.0000 N   0  0
   -2.6606   -4.9119    0.0000 C   0  0
   -2.1776   -5.5834    0.0000 C   0  0
   -1.5003   -4.0771    0.0000 C   0  0
   -2.3253   -4.1581    0.0000 C   0  0
   -1.0172   -4.7485    0.0000 N   0  0
   -0.8864   -6.1729    0.0000 N   0  0
   -0.1954   -4.6678    0.0000 C   0  0
    0.2833   -5.3457    0.0000 C   0  0
   -0.0676   -6.0986    0.0000 C   0  0
    0.4066   -6.7752    0.0000 C   0  0
    1.2337   -6.7048    0.0000 C   0  0
    1.5844   -5.9517    0.0000 C   0  0
    1.1081   -5.2692    0.0000 C   0  0
    0.1467   -3.9200    0.0000 O   0  0
   -1.2305   -6.9197    0.0000 C   0  0
   -1.3628   -5.5012    0.0000 C   0  0  1  0  0  0
   -1.7753   -6.2156    0.0000 H   0  0
  9 23  1  0
 12 10  1  0
 10 11  1  0
 12 23  1  0
  1  2  1  0
  1  4  2  0
  6  7  1  0
 12 14  1  0
 23 13  1  0
 13 16  1  0
 15 14  1  0
 15 16  2  0
  7  9  1  0
  8  5  1  0
  8  9  2  0
  2  3  2  0
  3  6  1  0
  5  4  1  0
 15 20  1  0
 16 17  1  0
 17 18  2  0
 18 19  1  0
 19 20  2  0
  5  6  2  0
 14 21  2  0
  8 11  1  0
 13 22  1  0
 23 24  1  6
M  END
>  <MOLREGNO>
443896

>  <CHEMBLID>
CHEMBL486598

>  <SYNONYMS>
Evodiamine | Evidiamine Chloride

>  <MAX_PHASE>
0

>  <MOLWEIGHT>
303.36

>  <ALOGP>
3.67

>  <PSA>
39.34

>  <HBA>
2

>  <HBD>
1

>  <RO5>
0

>  <RTB>
0

>  <RO3>
N

>  <ACD_MOST_APKA>
9.97

>  <ACD_MOST_BPKA>
9.31

>  <ACD_LOGP>
2.04

>  <ACD_LOGD>
.14

>  <AROMATIC_RINGS>
3

>  <HEAVY_ATOMS>
23

>  <QED_WEIGHTED>
.69

>  <HBA_LIPINSKI>
4

>  <HBD_LIPINSKI>
1

>  <NUM_LIPINSKI_RO5_VIOLATIONS>
0

>  <MW_MONOISOTOPIC>
303.1372

>  <MOLECULAR_SPECIES>
BASE

>  <FULL_MOLFORMULA>
C19H17N3O

$$$$

  SciTegic12231509382D

 22 26  0  0  0  0            999 V2000
   -3.8331    0.9386    0.0000 C   0  0
   -3.8331    0.1163    0.0000 C   0  0
   -3.1235   -0.2907    0.0000 C   0  0
   -3.1235    1.3538    0.0000 C   0  0
   -2.4138    0.9386    0.0000 C   0  0
   -2.4138    0.1152    0.0000 C   0  0
   -1.6308   -0.1392    0.0000 N   0  0
   -1.6308    1.1929    0.0000 C   0  0
   -1.1477    0.5214    0.0000 C   0  0
   -0.4704    2.0277    0.0000 C   0  0
   -1.2953    1.9466    0.0000 C   0  0
    0.0127    1.3562    0.0000 N   0  0
   -0.3329    0.6036    0.0000 C   0  0
    0.1435   -0.0682    0.0000 N   0  0
    0.8345    1.4369    0.0000 C   0  0
    1.3132    0.7591    0.0000 C   0  0
    0.9624    0.0061    0.0000 C   0  0
    1.4364   -0.6705    0.0000 C   0  0
    2.2636   -0.6001    0.0000 C   0  0
    2.6143    0.1530    0.0000 C   0  0
    2.1380    0.8355    0.0000 C   0  0
    1.1766    2.1848    0.0000 O   0  0
  8 11  1  0
  9 13  1  0
 12 10  1  0
 10 11  1  0
 12 13  1  0
  1  2  1  0
  1  4  2  0
  6  7  1  0
 12 15  1  0
 13 14  2  0
 14 17  1  0
 16 15  1  0
 16 17  2  0
  7  9  1  0
  8  5  1  0
  8  9  2  0
  2  3  2  0
  3  6  1  0
  5  4  1  0
 16 21  1  0
 17 18  1  0
 18 19  2  0
 19 20  1  0
 20 21  2  0
  5  6  2  0
 15 22  2  0
M  END
>  <MOLREGNO>
136386

>  <CHEMBLID>
CHEMBL85139

>  <SYNONYMS>
Rutaecarpine Hydrochloride | Rutaecarpine

>  <MAX_PHASE>
0

>  <MOLWEIGHT>
287.32

>  <ALOGP>
3.36

>  <PSA>
48.46

>  <HBA>
2

>  <HBD>
1

>  <RO5>
0

>  <RTB>
0

>  <RO3>
N

>  <ACD_MOST_APKA>


>  <ACD_MOST_BPKA>
2.97

>  <ACD_LOGP>
2.94

>  <ACD_LOGD>
2.94

>  <AROMATIC_RINGS>
3

>  <HEAVY_ATOMS>
22

>  <QED_WEIGHTED>
.69

>  <HBA_LIPINSKI>
4

>  <HBD_LIPINSKI>
1

>  <NUM_LIPINSKI_RO5_VIOLATIONS>
0

>  <MW_MONOISOTOPIC>
287.1059

>  <MOLECULAR_SPECIES>
NEUTRAL

>  <FULL_MOLFORMULA>
C18H13N3O

$$$$

  SciTegic01061414252D

 54 59  0  0  0  0            999 V2000
    8.5110   -8.1453    0.0000 O   0  0
    8.5972   -7.3248    0.0000 C   0  0  2  0  0  0
    7.8436   -6.9892    0.0000 C   0  0  1  0  0  0
    7.2915   -7.6023    0.0000 C   0  0  2  0  0  0
    7.7040   -8.3168    0.0000 C   0  0
    6.6241   -6.4463    0.0000 O   0  0
    7.4311   -6.2747    0.0000 C   0  0
    6.5378   -7.2668    0.0000 C   0  0  2  0  0  0
   10.7406   -6.0873    0.0000 C   0  0
   10.7406   -6.9123    0.0000 C   0  0
   10.0262   -7.3248    0.0000 C   0  0
    9.3117   -6.9123    0.0000 C   0  0
    9.3117   -6.0873    0.0000 C   0  0
   10.0262   -5.6748    0.0000 C   0  0
   10.0262   -4.8498    0.0000 O   0  0
   10.7406   -4.4373    0.0000 C   0  0
   11.4551   -7.3248    0.0000 O   0  0
   11.4551   -8.1498    0.0000 C   0  0
    4.3944   -8.5043    0.0000 C   0  0
    4.3944   -7.6793    0.0000 C   0  0
    5.1089   -7.2668    0.0000 C   0  0
    5.8234   -7.6793    0.0000 C   0  0
    5.8234   -8.5043    0.0000 C   0  0
    5.1089   -8.9168    0.0000 C   0  0
    5.1089   -9.7418    0.0000 O   0  0
    4.3944  -10.1543    0.0000 C   0  0
    3.6800   -7.2668    0.0000 O   0  0
    3.6800   -6.4418    0.0000 C   0  0
   11.4551   -5.6748    0.0000 O   0  0
   12.1696   -6.0873    0.0000 C   0  0  1  0  0  0
   12.8841   -5.6748    0.0000 C   0  0  2  0  0  0
   12.8841   -4.8498    0.0000 O   0  0
   13.5985   -6.0873    0.0000 C   0  0  1  0  0  0
   14.3130   -5.6748    0.0000 O   0  0
   13.5985   -6.9123    0.0000 C   0  0  2  0  0  0
   14.3130   -7.3248    0.0000 O   0  0
   12.8841   -7.3248    0.0000 C   0  0  2  0  0  0
   12.1696   -6.9123    0.0000 O   0  0
   12.8841   -8.1498    0.0000 C   0  0
   13.5985   -8.5623    0.0000 O   0  0
    3.6800   -8.9168    0.0000 O   0  0
    2.9655   -8.5043    0.0000 C   0  0  1  0  0  0
    2.2510   -8.9168    0.0000 C   0  0  2  0  0  0
    2.2510   -9.7418    0.0000 O   0  0
    1.5365   -8.5043    0.0000 C   0  0  1  0  0  0
    0.8221   -8.9168    0.0000 O   0  0
    1.5365   -7.6793    0.0000 C   0  0  2  0  0  0
    0.8221   -7.2668    0.0000 O   0  0
    2.2510   -7.2668    0.0000 C   0  0  2  0  0  0
    2.9655   -7.6793    0.0000 O   0  0
    2.2510   -6.4418    0.0000 C   0  0
    1.5365   -6.0293    0.0000 O   0  0
    6.7395   -8.2154    0.0000 H   0  0
    8.3956   -6.3761    0.0000 H   0  0
  1  2  1  0
  2  3  1  0
  3  4  1  0
  4  5  1  0
  1  5  1  0
  6  7  1  0
  6  8  1  0
  3  7  1  0
  4  8  1  0
  9 10  1  0
 10 11  2  0
 11 12  1  0
 12 13  2  0
 13 14  1  0
  9 14  2  0
 15 16  1  0
 14 15  1  0
 17 18  1  0
 10 17  1  0
  2 12  1  6
 19 20  1  0
 20 21  2  0
 21 22  1  0
 22 23  2  0
 23 24  1  0
 19 24  2  0
 25 26  1  0
 24 25  1  0
 27 28  1  0
 20 27  1  0
  8 22  1  1
 30 29  1  1
 30 31  1  0
 31 32  1  6
 31 33  1  0
 33 34  1  1
 33 35  1  0
 35 36  1  6
 35 37  1  0
 37 38  1  0
 37 39  1  1
 39 40  1  0
 30 38  1  0
  9 29  1  0
 42 41  1  1
 42 43  1  0
 43 44  1  6
 43 45  1  0
 45 46  1  1
 45 47  1  0
 47 48  1  6
 47 49  1  0
 49 50  1  0
 49 51  1  1
 51 52  1  0
 42 50  1  0
 19 41  1  0
  4 53  1  1
  3 54  1  6
M  END
>  <MOLREGNO>
1589258

>  <CHEMBLID>
CHEMBL2442731

>  <SYNONYMS>


>  <MAX_PHASE>
0

>  <MOLWEIGHT>
742.72

>  <ALOGP>
-1.71

>  <PSA>
254.13

>  <HBA>
18

>  <HBD>
8

>  <RO5>
3

>  <RTB>
12

>  <RO3>
N

>  <ACD_MOST_APKA>


>  <ACD_MOST_BPKA>
1.14

>  <ACD_LOGP>
4.58

>  <ACD_LOGD>
4.58

>  <AROMATIC_RINGS>
2

>  <HEAVY_ATOMS>
52

>  <QED_WEIGHTED>
.12

>  <HBA_LIPINSKI>
18

>  <HBD_LIPINSKI>
8

>  <NUM_LIPINSKI_RO5_VIOLATIONS>
2

>  <MW_MONOISOTOPIC>
742.2684

>  <MOLECULAR_SPECIES>
NEUTRAL

>  <FULL_MOLFORMULA>
C34H46O18

$$$$

  SciTegic04091416292D

 81 90  0  0  0  0            999 V2000
   16.6628   -3.3043    0.0000 C   0  0  1  0  0  0
   16.5925   -2.4824    0.0000 C   0  0
   15.9158   -2.9541    0.0000 O   0  0
   12.6572   -6.7496    0.0000 C   0  0
   12.2455   -7.4646    0.0000 C   0  0
   13.0705   -7.4637    0.0000 C   0  0
   11.9453   -5.5164    0.0000 C   0  0
   11.9453   -6.3413    0.0000 C   0  0  2  0  0  0
   12.6572   -5.0997    0.0000 C   0  0
   13.3692   -5.5164    0.0000 C   0  0  1  0  0  0
   13.3657   -6.3413    0.0000 C   0  0  1  0  0  0
   14.0744   -6.7545    0.0000 C   0  0
   14.7912   -6.3474    0.0000 C   0  0
   14.0815   -5.1047    0.0000 C   0  0  2  0  0  0
   14.7947   -5.5273    0.0000 C   0  0  2  0  0  0
   14.8118   -3.8721    0.0000 C   0  0
   14.0868   -4.2779    0.0000 C   0  0
   15.5251   -4.2947    0.0000 C   0  0  1  0  0  0
   15.5116   -5.1212    0.0000 C   0  0  1  0  0  0
   16.2935   -5.3894    0.0000 C   0  0
   16.3152   -4.0522    0.0000 C   0  0  2  0  0  0
   16.7872   -4.7311    0.0000 C   0  0  1  0  0  0
   17.6067   -4.6623    0.0000 O   0  0
   17.9605   -3.9157    0.0000 C   0  0  2  0  0  0
   17.4886   -3.2367    0.0000 C   0  0
   18.7826   -3.8477    0.0000 C   0  0
   19.2526   -4.5257    0.0000 C   0  0
   20.0747   -4.4579    0.0000 C   0  0
   18.9003   -5.2717    0.0000 C   0  0
   14.7867   -4.6997    0.0000 C   0  0
   13.3618   -4.6915    0.0000 C   0  0
   15.7200   -5.9164    0.0000 C   0  0
   16.5450   -5.9164    0.0000 O   0  0
   17.0908   -3.7708    0.0000 H   0  0
   11.2314   -6.7549    0.0000 O   0  0
   10.5163   -6.3434    0.0000 C   0  0  2  0  0  0
   10.5174   -5.5198    0.0000 O   0  0
    9.8064   -5.1084    0.0000 C   0  0
    9.0902   -5.5185    0.0000 C   0  0  1  0  0  0
    9.0894   -6.3443    0.0000 C   0  0  1  0  0  0
    9.8049   -6.7602    0.0000 C   0  0  1  0  0  0
    8.3768   -5.1043    0.0000 O   0  0
    8.3741   -6.7554    0.0000 O   0  0
    7.6605   -6.3415    0.0000 C   0  0  2  0  0  0
    7.6624   -5.5158    0.0000 O   0  0
    6.9529   -5.1020    0.0000 C   0  0  1  0  0  0
    6.2352   -5.5096    0.0000 C   0  0  2  0  0  0
    6.2317   -6.3355    0.0000 C   0  0  1  0  0  0
    6.9457   -6.7539    0.0000 C   0  0  1  0  0  0
    6.9576   -4.2771    0.0000 C   0  0
    5.5150   -6.7442    0.0000 O   0  0
    7.6745   -3.8687    0.0000 O   0  0
    5.5232   -5.0931    0.0000 O   0  0
    6.9429   -7.5792    0.0000 O   0  0
    6.1686   -7.8636    0.0000 C   0  0  2  0  0  0
    5.5358   -7.3360    0.0000 O   0  0
    4.7642   -7.6174    0.0000 C   0  0
    4.6192   -8.4299    0.0000 C   0  0  2  0  0  0
    5.2523   -8.9604    0.0000 C   0  0  1  0  0  0
    6.0303   -8.6783    0.0000 C   0  0  1  0  0  0
    6.6635   -9.2070    0.0000 O   0  0
    3.8438   -8.7115    0.0000 O   0  0
    5.1087   -9.7727    0.0000 O   0  0
   14.0743   -5.9288    0.0000 H   0  0
   15.5200   -3.4665    0.0000 H   0  0
    9.8063   -7.5852    0.0000 O   0  0
    9.3870   -8.2954    0.0000 C   0  0  2  0  0  0
    8.5614   -8.2854    0.0000 O   0  0
    8.1423   -8.9916    0.0000 C   0  0  2  0  0  0
    8.5441   -9.7121    0.0000 C   0  0  1  0  0  0
    9.3697   -9.7221    0.0000 C   0  0  2  0  0  0
    9.7935   -9.0115    0.0000 C   0  0  1  0  0  0
    9.7728  -10.4419    0.0000 O   0  0
   10.6184   -9.0203    0.0000 O   0  0
    8.1220  -10.4209    0.0000 O   0  0
    8.3704   -5.9247    0.0000 H   0  0
   11.0994   -5.7539    0.0000 H   0  0
   12.6452   -5.9247    0.0000 H   0  0
    7.5538   -8.4037    0.0000 C   0  0
    6.3789   -7.0622    0.0000 H   0  0
    8.9745   -7.5809    0.0000 H   0  0
  2  1  1  0
  1  3  1  1
  5  4  1  0
  4  6  1  0
  7  8  1  0
  7  9  1  0
  8  4  1  0
  4 11  1  0
 10  9  1  0
 10 11  1  0
 10 14  1  0
 11 12  1  0
 12 13  1  0
 13 15  1  0
 14 15  1  0
 14 17  1  0
 15 19  1  0
 18 16  1  0
 16 17  1  0
 18 19  1  0
 19 20  1  0
 20 22  1  0
 21 18  1  0
 21 22  1  0
 21  1  1  0
 22 23  1  0
 23 24  1  0
 24 25  1  0
 25  1  1  0
 24 26  1  6
 26 27  2  0
 27 28  1  0
 27 29  1  0
 15 30  1  1
 10 31  1  1
 19 32  1  6
 32 33  1  0
 22 33  1  6
 21 34  1  6
  8 35  1  1
 36 35  1  0
 36 37  1  0
 36 41  1  0
 37 38  1  0
 38 39  1  0
 39 40  1  0
 40 41  1  0
 39 42  1  1
 40 43  1  1
 44 43  1  0
 44 45  1  0
 44 49  1  0
 45 46  1  0
 46 47  1  0
 47 48  1  0
 48 49  1  0
 46 50  1  1
 48 51  1  1
 50 52  1  0
 47 53  1  6
 49 54  1  6
 55 54  1  0
 55 56  1  0
 55 60  1  0
 56 57  1  0
 57 58  1  0
 58 59  1  0
 59 60  1  0
 60 61  1  6
 58 62  1  6
 59 63  1  1
 14 64  1  6
 18 65  1  1
 41 66  1  6
 67 66  1  0
 67 68  1  0
 67 72  1  0
 68 69  1  0
 69 70  1  0
 70 71  1  0
 71 72  1  0
 71 73  1  6
 72 74  1  6
 70 75  1  1
 44 76  1  6
 36 77  1  6
 11 78  1  6
 69 79  1  6
 55 80  1  6
 67 81  1  6
M  END
>  <MOLREGNO>
1614680

>  <CHEMBLID>
CHEMBL3109480

>  <SYNONYMS>


>  <MAX_PHASE>
0

>  <MOLWEIGHT>
1045.21

>  <ALOGP>


>  <PSA>


>  <HBA>


>  <HBD>


>  <RO5>


>  <RTB>


>  <RO3>


>  <ACD_MOST_APKA>


>  <ACD_MOST_BPKA>


>  <ACD_LOGP>


>  <ACD_LOGD>


>  <AROMATIC_RINGS>


>  <HEAVY_ATOMS>


>  <QED_WEIGHTED>


>  <HBA_LIPINSKI>


>  <HBD_LIPINSKI>


>  <NUM_LIPINSKI_RO5_VIOLATIONS>


>  <MW_MONOISOTOPIC>
1044.5505

>  <MOLECULAR_SPECIES>


>  <FULL_MOLFORMULA>
C52H84O21

$$$$

  SciTegic07121117002D

 33 36  0  0  1  0            999 V2000
    5.2956    0.0051    0.0000 O   0  0
    2.3676    0.1626    0.0000 O   0  0
    3.7965   -2.3124    0.0000 O   0  0
    0.2241   -0.2499    0.0000 O   0  0
    2.3676   -2.3124    0.0000 O   0  0
   -0.4903    0.9876    0.0000 O   0  0
    7.4305   -0.6624    0.0000 O   0  0
   -1.2048   -1.0749    0.0000 O   0  0
   -2.6337   -0.2499    0.0000 O   0  0
   -2.6337    1.4001    0.0000 O   0  0
   -1.9193    2.6376    0.0000 O   0  0
    4.5110   -1.0749    0.0000 C   0  0
    3.0820   -1.0749    0.0000 C   0  0
    3.7965   -1.4874    0.0000 C   0  0
    4.5110   -0.2499    0.0000 C   0  0
    3.0820   -0.2499    0.0000 C   0  0
    5.7805   -0.6624    0.0000 C   0  0  1  0  0  0
    3.7965    0.1626    0.0000 C   0  0
    2.3676   -1.4874    0.0000 C   0  0
    5.2956   -1.3298    0.0000 C   0  0
    1.6531   -0.2499    0.0000 C   0  0
    6.6055   -0.6624    0.0000 C   0  0
    1.6531   -1.0749    0.0000 C   0  0
   -0.4903    0.1626    0.0000 C   0  0  2  0  0  0
    0.9386    0.1626    0.0000 C   0  0
   -1.2048   -0.2499    0.0000 C   0  0  1  0  0  0
   -1.9193    0.1626    0.0000 C   0  0  2  0  0  0
   -1.9193    0.9876    0.0000 C   0  0  1  0  0  0
   -1.2048    1.4001    0.0000 C   0  0  1  0  0  0
    6.6055    0.1626    0.0000 C   0  0
    6.6055   -1.4874    0.0000 C   0  0
    3.0820   -2.7249    0.0000 C   0  0
   -1.2048    2.2251    0.0000 C   0  0
  1 15  1  0
  1 17  1  0
  2 16  1  0
  2 21  1  0
  3 14  1  0
  3 32  1  0
 24  4  1  1
  4 25  1  0
  5 19  2  0
  6 24  1  0
  6 29  1  0
  7 22  1  0
 26  8  1  6
 27  9  1  1
 28 10  1  6
 11 33  1  0
 12 14  2  0
 12 15  1  0
 12 20  1  0
 13 14  1  0
 13 16  2  0
 13 19  1  0
 15 18  2  0
 16 18  1  0
 17 20  1  0
 17 22  1  6
 19 23  1  0
 21 23  2  0
 21 25  1  0
 22 30  1  0
 22 31  1  0
 24 26  1  0
 26 27  1  0
 27 28  1  0
 28 29  1  0
 29 33  1  1
M  END
>  <MOLREGNO>
1115337

>  <CHEMBLID>
CHEMBL1734606

>  <SYNONYMS>
Prim-O-Glucosylcimifugin

>  <MAX_PHASE>
0

>  <MOLWEIGHT>
468.45

>  <ALOGP>
-.62

>  <PSA>
164.37

>  <HBA>
11

>  <HBD>
5

>  <RO5>
1

>  <RTB>
6

>  <RO3>
N

>  <ACD_MOST_APKA>
12.94

>  <ACD_MOST_BPKA>


>  <ACD_LOGP>
-1.46

>  <ACD_LOGD>
-1.46

>  <AROMATIC_RINGS>
1

>  <HEAVY_ATOMS>
33

>  <QED_WEIGHTED>
.36

>  <HBA_LIPINSKI>
11

>  <HBD_LIPINSKI>
5

>  <NUM_LIPINSKI_RO5_VIOLATIONS>
1

>  <MW_MONOISOTOPIC>
468.1632

>  <MOLECULAR_SPECIES>
NEUTRAL

>  <FULL_MOLFORMULA>
C22H28O11

$$$$

  CDK    9/16/09,9:19

 45 48  0  0  0  0  0  0  0  0999 V2000
    5.3140   -1.8843    0.0000 C   0  0  0  0  0  0  0  0  0  0  0  0
    6.1387   -1.9037    0.0000 C   0  0  0  0  0  0  0  0  0  0  0  0
    6.5292   -2.6297    0.0000 C   0  0  0  0  0  0  0  0  0  0  0  0
    6.1042   -3.3362    0.0000 C   0  0  0  0  0  0  0  0  0  0  0  0
    5.2794   -3.3167    0.0000 C   0  0  0  0  0  0  0  0  0  0  0  0
    4.8797   -2.5907    0.0000 O   0  0  0  0  0  0  0  0  0  0  0  0
    4.8451   -4.0187    0.0000 C   0  0  0  0  0  0  0  0  0  0  0  0
    4.9145   -1.1622    0.0000 O   0  0  0  0  0  0  0  0  0  0  0  0
    8.4904    0.8993    0.0000 C   0  0  0  0  0  0  0  0  0  0  0  0
    8.4928    0.0744    0.0000 C   0  0  0  0  0  0  0  0  0  0  0  0
    9.2052   -0.3366    0.0000 C   0  0  0  0  0  0  0  0  0  0  0  0
    9.9236    0.0753    0.0000 C   0  0  0  0  0  0  0  0  0  0  0  0
    9.9230    0.9060    0.0000 C   0  0  0  0  0  0  0  0  0  0  0  0
    9.2019    1.3146    0.0000 C   0  0  0  0  0  0  0  0  0  0  0  0
    7.7749    1.3132    0.0000 C   0  0  0  0  0  0  0  0  0  0  0  0
    7.0607    0.9019    0.0000 C   0  0  0  0  0  0  0  0  0  0  0  0
    6.3452    1.3157    0.0000 O   0  0  0  0  0  0  0  0  0  0  0  0
    5.6308    0.8999    0.0000 C   0  0  0  0  0  0  0  0  0  0  0  0
    4.9195    1.3163    0.0000 O   0  0  0  0  0  0  0  0  0  0  0  0
    4.2088    0.9016    0.0000 C   0  0  0  0  0  0  0  0  0  0  0  0
    4.2073    0.0759    0.0000 C   0  0  0  0  0  0  0  0  0  0  0  0
    4.9180   -0.3371    0.0000 C   0  0  0  0  0  0  0  0  0  0  0  0
    5.6391    0.0757    0.0000 C   0  0  0  0  0  0  0  0  0  0  0  0
    3.4958    1.3200    0.0000 C   0  0  0  0  0  0  0  0  0  0  0  0
    3.4904   -0.3310    0.0000 O   0  0  0  0  0  0  0  0  0  0  0  0
    2.7776    0.0783    0.0000 C   0  0  0  0  0  0  0  0  0  0  0  0
    2.0607   -0.3286    0.0000 C   0  0  0  0  0  0  0  0  0  0  0  0
    2.7771    0.9034    0.0000 O   0  0  0  0  0  0  0  0  0  0  0  0
    1.3479    0.0852    0.0000 C   0  0  0  0  0  0  0  0  0  0  0  0
    0.6310   -0.3216    0.0000 C   0  0  0  0  0  0  0  0  0  0  0  0
   -0.0822    0.0888    0.0000 C   0  0  0  0  0  0  0  0  0  0  0  0
   -0.7983   -0.3214    0.0000 C   0  0  0  0  0  0  0  0  0  0  0  0
   -0.8030   -1.1480    0.0000 C   0  0  0  0  0  0  0  0  0  0  0  0
   -0.0863   -1.5616    0.0000 C   0  0  0  0  0  0  0  0  0  0  0  0
    0.6294   -1.1473    0.0000 C   0  0  0  0  0  0  0  0  0  0  0  0
    4.4889   -1.8843    0.0000 H   0  0  0  0  0  0  0  0  0  0  0  0
    6.5639   -1.2018    0.0000 O   0  0  0  0  0  0  0  0  0  0  0  0
    7.3540   -2.6492    0.0000 O   0  0  0  0  0  0  0  0  0  0  0  0
    6.4947   -4.0577    0.0000 O   0  0  0  0  0  0  0  0  0  0  0  0
   10.6299    1.3221    0.0000 O   0  0  0  0  0  0  0  0  0  0  0  0
   10.6345   -0.3339    0.0000 O   0  0  0  0  0  0  0  0  0  0  0  0
    3.4999    2.1452    0.0000 O   0  0  0  0  0  0  0  0  0  0  0  0
    6.3548   -0.3332    0.0000 O   0  0  0  0  0  0  0  0  0  0  0  0
   -1.5108    0.0930    0.0000 O   0  0  0  0  0  0  0  0  0  0  0  0
   -1.5144   -1.5609    0.0000 O   0  0  0  0  0  0  0  0  0  0  0  0
  5  7  1  6  0  0  0 
  1  6  1  0  0  0  0 
  1  8  1  0  0  0  0 
  9 10  2  0  0  0  0 
 10 11  1  0  0  0  0 
 11 12  2  0  0  0  0 
 12 13  1  0  0  0  0 
 13 14  2  0  0  0  0 
 14  9  1  0  0  0  0 
  9 15  1  0  0  0  0 
 15 16  1  0  0  0  0 
 16 17  1  0  0  0  0 
 18 17  1  1  0  0  0 
 18 19  1  0  0  0  0 
 18 23  1  0  0  0  0 
 19 20  1  0  0  0  0 
 20 21  1  0  0  0  0 
 21 22  1  0  0  0  0 
 22 23  1  0  0  0  0 
 20 24  1  1  0  0  0 
 21 25  1  6  0  0  0 
 22  8  1  1  0  0  0 
 25 26  1  0  0  0  0 
 26 27  1  0  0  0  0 
 26 28  2  0  0  0  0 
 27 29  2  0  0  0  0 
 29 30  1  0  0  0  0 
 30 31  2  0  0  0  0 
 31 32  1  0  0  0  0 
 32 33  2  0  0  0  0 
 33 34  1  0  0  0  0 
 34 35  2  0  0  0  0 
 35 30  1  0  0  0  0 
  1 36  1  6  0  0  0 
  1  2  1  0  0  0  0 
  2  3  1  0  0  0  0 
  3  4  1  0  0  0  0 
  4  5  1  0  0  0  0 
  5  6  1  0  0  0  0 
  3 38  1  6  0  0  0 
 12 41  1  0  0  0  0 
  2 37  1  6  0  0  0 
 24 42  1  0  0  0  0 
  4 39  1  1  0  0  0 
 23 43  1  6  0  0  0 
 32 44  1  0  0  0  0 
 13 40  1  0  0  0  0 
 33 45  1  0  0  0  0 
M  END
>  <MOLREGNO>
482537

>  <CHEMBLID>
CHEMBL444478

>  <SYNONYMS>
Verbacoside | Acetoside | Verbascoside | Acteoside

>  <MAX_PHASE>
0

>  <MOLWEIGHT>
624.59

>  <ALOGP>
.48

>  <PSA>
245.28

>  <HBA>
15

>  <HBD>
9

>  <RO5>
3

>  <RTB>
11

>  <RO3>
N

>  <ACD_MOST_APKA>
9.31

>  <ACD_MOST_BPKA>


>  <ACD_LOGP>
.08

>  <ACD_LOGD>
.07

>  <AROMATIC_RINGS>
2

>  <HEAVY_ATOMS>
44

>  <QED_WEIGHTED>
.09

>  <HBA_LIPINSKI>
15

>  <HBD_LIPINSKI>
9

>  <NUM_LIPINSKI_RO5_VIOLATIONS>
2

>  <MW_MONOISOTOPIC>
624.2054

>  <MOLECULAR_SPECIES>
NEUTRAL

>  <FULL_MOLFORMULA>
C29H36O15

$$$$

  CDK    9/16/09,9:19

 45 48  0  0  0  0  0  0  0  0999 V2000
   -4.8348  -19.6458    0.0000 C   0  0  0  0  0  0  0  0  0  0  0  0
   -4.8359  -20.4732    0.0000 C   0  0  0  0  0  0  0  0  0  0  0  0
   -4.1211  -20.8860    0.0000 C   0  0  0  0  0  0  0  0  0  0  0  0
   -3.4047  -20.4727    0.0000 C   0  0  0  0  0  0  0  0  0  0  0  0
   -3.4075  -19.6422    0.0000 C   0  0  0  0  0  0  0  0  0  0  0  0
   -4.1229  -19.2330    0.0000 C   0  0  0  0  0  0  0  0  0  0  0  0
   -5.5507  -20.8851    0.0000 O   0  0  0  0  0  0  0  0  0  0  0  0
   -2.6946  -19.2270    0.0000 C   0  0  0  0  0  0  0  0  0  0  0  0
   -1.9786  -19.6368    0.0000 C   0  0  0  0  0  0  0  0  0  0  0  0
   -1.2657  -19.2216    0.0000 C   0  0  0  0  0  0  0  0  0  0  0  0
   -0.5491  -19.6313    0.0000 O   0  0  0  0  0  0  0  0  0  0  0  0
   -1.2682  -18.3965    0.0000 O   0  0  0  0  0  0  0  0  0  0  0  0
   -0.5456  -20.4563    0.0000 C   0  0  0  0  0  0  0  0  0  0  0  0
    0.1706  -20.8658    0.0000 C   0  0  0  0  0  0  0  0  0  0  0  0
    0.1678  -21.6882    0.0000 C   0  0  0  0  0  0  0  0  0  0  0  0
    0.8798  -22.0976    0.0000 C   0  0  0  0  0  0  0  0  0  0  0  0
    1.5950  -21.6856    0.0000 C   0  0  0  0  0  0  0  0  0  0  0  0
    1.5936  -20.8596    0.0000 C   0  0  0  0  0  0  0  0  0  0  0  0
    0.8769  -20.4457    0.0000 O   0  0  0  0  0  0  0  0  0  0  0  0
    2.3077  -20.4466    0.0000 O   0  0  0  0  0  0  0  0  0  0  0  0
    3.0225  -20.8585    0.0000 C   0  0  0  0  0  0  0  0  0  0  0  0
    3.7366  -20.4455    0.0000 C   0  0  0  0  0  0  0  0  0  0  0  0
    4.4514  -20.8574    0.0000 C   0  0  0  0  0  0  0  0  0  0  0  0
    4.4479  -21.6803    0.0000 C   0  0  0  0  0  0  0  0  0  0  0  0
    5.1618  -22.0921    0.0000 C   0  0  0  0  0  0  0  0  0  0  0  0
    5.8770  -21.6790    0.0000 C   0  0  0  0  0  0  0  0  0  0  0  0
    5.8737  -20.8497    0.0000 C   0  0  0  0  0  0  0  0  0  0  0  0
    5.1591  -20.4416    0.0000 C   0  0  0  0  0  0  0  0  0  0  0  0
    6.5863  -20.4342    0.0000 O   0  0  0  0  0  0  0  0  0  0  0  0
    6.5923  -22.0900    0.0000 O   0  0  0  0  0  0  0  0  0  0  0  0
    2.3097  -22.0978    0.0000 O   0  0  0  0  0  0  0  0  0  0  0  0
   -0.5470  -22.1001    0.0000 O   0  0  0  0  0  0  0  0  0  0  0  0
    0.8802  -22.9226    0.0000 O   0  0  0  0  0  0  0  0  0  0  0  0
   -5.5493  -19.2335    0.0000 O   0  0  0  0  0  0  0  0  0  0  0  0
    0.1659  -23.3354    0.0000 C   0  0  0  0  0  0  0  0  0  0  0  0
   -0.5448  -22.9189    0.0000 O   0  0  0  0  0  0  0  0  0  0  0  0
   -1.2570  -23.3282    0.0000 C   0  0  0  0  0  0  0  0  0  0  0  0
   -1.2609  -24.1535    0.0000 C   0  0  0  0  0  0  0  0  0  0  0  0
   -0.5464  -24.5679    0.0000 C   0  0  0  0  0  0  0  0  0  0  0  0
    0.1720  -24.1570    0.0000 C   0  0  0  0  0  0  0  0  0  0  0  0
    0.1583  -22.5083    0.0000 H   0  0  0  0  0  0  0  0  0  0  0  0
   -1.9701  -22.9132    0.0000 C   0  0  0  0  0  0  0  0  0  0  0  0
   -1.9768  -24.5636    0.0000 O   0  0  0  0  0  0  0  0  0  0  0  0
   -0.5489  -25.3929    0.0000 O   0  0  0  0  0  0  0  0  0  0  0  0
    0.8871  -24.5683    0.0000 O   0  0  0  0  0  0  0  0  0  0  0  0
 21 22  1  0  0  0  0 
  5  6  2  0  0  0  0 
 22 23  1  0  0  0  0 
 10 11  1  0  0  0  0 
 23 24  2  0  0  0  0 
 10 12  2  0  0  0  0 
 24 25  1  0  0  0  0 
  6  1  1  0  0  0  0 
 25 26  2  0  0  0  0 
 11 13  1  0  0  0  0 
 26 27  1  0  0  0  0 
  1  2  2  0  0  0  0 
 27 28  2  0  0  0  0 
 28 23  1  0  0  0  0 
 14 13  1  1  0  0  0 
 27 29  1  0  0  0  0 
 14 15  1  0  0  0  0 
 26 30  1  0  0  0  0 
  2  7  1  0  0  0  0 
 17 31  1  6  0  0  0 
  3  4  2  0  0  0  0 
 15 32  1  6  0  0  0 
  5  8  1  0  0  0  0 
 16 33  1  1  0  0  0 
  1 34  1  0  0  0  0 
  8  9  2  0  0  0  0 
 33 35  1  0  0  0  0 
 35 36  1  0  0  0  0 
 14 19  1  0  0  0  0 
 15 16  1  0  0  0  0 
 16 17  1  0  0  0  0 
 17 18  1  0  0  0  0 
 18 19  1  0  0  0  0 
 35 40  1  0  0  0  0 
 36 37  1  0  0  0  0 
 37 38  1  0  0  0  0 
 38 39  1  0  0  0  0 
 39 40  1  0  0  0  0 
  4  5  1  0  0  0  0 
 35 41  1  6  0  0  0 
 18 20  1  1  0  0  0 
 37 42  1  6  0  0  0 
  9 10  1  0  0  0  0 
 38 43  1  1  0  0  0 
 20 21  1  0  0  0  0 
 39 44  1  6  0  0  0 
  2  3  1  0  0  0  0 
 40 45  1  6  0  0  0 
M  END
>  <MOLREGNO>
443659

>  <CHEMBLID>
CHEMBL504873

>  <SYNONYMS>
Isoverbascoside | Isoacetoside | Isoacteoside

>  <MAX_PHASE>
0

>  <MOLWEIGHT>
624.59

>  <ALOGP>
.48

>  <PSA>
245.28

>  <HBA>
15

>  <HBD>
9

>  <RO5>
3

>  <RTB>
11

>  <RO3>
N

>  <ACD_MOST_APKA>
9.32

>  <ACD_MOST_BPKA>


>  <ACD_LOGP>
.15

>  <ACD_LOGD>
.15

>  <AROMATIC_RINGS>
2

>  <HEAVY_ATOMS>
44

>  <QED_WEIGHTED>
.09

>  <HBA_LIPINSKI>
15

>  <HBD_LIPINSKI>
9

>  <NUM_LIPINSKI_RO5_VIOLATIONS>
2

>  <MW_MONOISOTOPIC>
624.2054

>  <MOLECULAR_SPECIES>
NEUTRAL

>  <FULL_MOLFORMULA>
C29H36O15

$$$$

          02060813472D 1   1.00000     0.00000     0

 56 60  0     1  0            999 V2000
   11.9550   -8.6967    0.0000 C   0  0  0  0  0  0           0  0  0
   11.9538   -9.5243    0.0000 C   0  0  0  0  0  0           0  0  0
   12.6695   -9.9353    0.0000 C   0  0  0  0  0  0           0  0  0
   13.3867   -9.5238    0.0000 C   0  0  0  0  0  0           0  0  0
   13.3838   -8.6930    0.0000 C   0  0  0  0  0  0           0  0  0
   12.6677   -8.2817    0.0000 C   0  0  0  0  0  0           0  0  0
   11.2438   -8.2821    0.0000 O   0  0  0  0  0  0           0  0  0
   11.2424   -9.9343    0.0000 O   0  0  0  0  0  0           0  0  0
   14.1026   -9.9333    0.0000 C   0  0  0  0  0  0           0  0  0
   14.8173   -9.5216    0.0000 C   0  0  0  0  0  0           0  0  0
   15.5332   -9.9311    0.0000 C   0  0  0  0  0  0           0  0  0
   16.2478   -9.5193    0.0000 O   0  0  0  0  0  0           0  0  0
   15.5345  -10.7563    0.0000 O   0  0  0  0  0  0           0  0  0
   16.9637   -9.9288    0.0000 C   0  0  1  0  0  0           0  0  0
   16.9612  -10.7547    0.0000 C   0  0  1  0  0  0           0  0  0
   17.6689  -11.1681    0.0000 C   0  0  2  0  0  0           0  0  0
   18.3861  -10.7558    0.0000 C   0  0  1  0  0  0           0  0  0
   18.3867   -9.9295    0.0000 O   0  0  0  0  0  0           0  0  0
   17.6703   -9.5157    0.0000 C   0  0  2  0  0  0           0  0  0
   17.6671  -11.9934    0.0000 O   0  0  0  0  0  0           0  0  0
   17.6692   -8.6903    0.0000 C   0  0  0  0  0  0           0  0  0
   19.1004  -11.1721    0.0000 O   0  0  0  0  0  0           0  0  0
   16.2452  -11.1680    0.0000 O   0  0  0  0  0  0           0  0  0
   18.3840   -8.2747    0.0000 O   0  0  0  0  0  0           0  0  0
   19.8165  -10.7589    0.0000 C   0  0  0  0  0  0           0  0  0
   20.5310  -11.1753    0.0000 C   0  0  0  0  0  0           0  0  0
   21.2471  -10.7621    0.0000 C   0  0  0  0  0  0           0  0  0
   21.9605  -11.1821    0.0000 C   0  0  0  0  0  0           0  0  0
   22.6762  -10.7697    0.0000 C   0  0  0  0  0  0           0  0  0
   22.6784   -9.9435    0.0000 C   0  0  0  0  0  0           0  0  0
   21.9591   -9.5315    0.0000 C   0  0  0  0  0  0           0  0  0
   21.2463   -9.9422    0.0000 C   0  0  0  0  0  0           0  0  0
   21.9580   -8.7062    0.0000 O   0  0  0  0  0  0           0  0  0
   23.3900   -9.5336    0.0000 O   0  0  0  0  0  0           0  0  0
   16.2436  -11.9932    0.0000 C   0  0  2  0  0  0           0  0  0
   15.5276  -12.3963    0.0000 C   0  0  2  0  0  0           0  0  0
   15.5240  -13.2180    0.0000 C   0  0  2  0  0  0           0  0  0
   16.2366  -13.6379    0.0000 C   0  0  1  0  0  0           0  0  0
   16.9546  -13.2258    0.0000 C   0  0  2  0  0  0           0  0  0
   16.9597  -12.3979    0.0000 O   0  0  0  0  0  0           0  0  0
   14.8149  -11.9812    0.0000 O   0  0  0  0  0  0           0  0  0
   14.8063  -13.6287    0.0000 O   0  0  0  0  0  0           0  0  0
   16.2320  -14.4632    0.0000 O   0  0  0  0  0  0           0  0  0
   17.6634  -13.6443    0.0000 C   0  0  0  0  0  0           0  0  0
   15.5272  -11.5790    0.0000 H   0  0  0  0  0  0           0  0  0
   18.3813   -7.4535    0.0000 C   0  0  2  0  0  0           0  0  0
   19.0925   -7.0433    0.0000 C   0  0  2  0  0  0           0  0  0
   19.0918   -6.2257    0.0000 C   0  0  1  0  0  0           0  0  0
   18.3813   -5.8135    0.0000 C   0  0  2  0  0  0           0  0  0
   17.6696   -6.2252    0.0000 C   0  0  1  0  0  0           0  0  0
   17.6686   -7.0489    0.0000 O   0  0  0  0  0  0           0  0  0
   16.9585   -5.8144    0.0000 C   0  0  0  0  0  0           0  0  0
   19.8032   -5.8155    0.0000 O   0  0  0  0  0  0           0  0  0
   19.8037   -7.4537    0.0000 O   0  0  0  0  0  0           0  0  0
   18.3817   -4.9924    0.0000 O   0  0  0  0  0  0           0  0  0
   16.9587   -4.9933    0.0000 O   0  0  0  0  0  0           0  0  0
  1  2  2  0     0  0
 27 28  2  0     0  0
 14 12  1  6     0  0
 28 29  1  0     0  0
 14 15  1  0     0  0
 29 30  2  0     0  0
  1  7  1  0     0  0
 30 31  1  0     0  0
  3  4  2  0     0  0
 31 32  2  0     0  0
 32 27  1  0     0  0
  2  8  1  0     0  0
 31 33  1  0     0  0
 30 34  1  0     0  0
  4  9  1  0     0  0
 35 23  1  0     0  0
 35 36  1  0     0  0
 14 19  1  0     0  0
 15 16  1  0     0  0
 16 17  1  0     0  0
 17 18  1  0     0  0
 18 19  1  0     0  0
 35 40  1  0     0  0
 36 37  1  0     0  0
 37 38  1  0     0  0
 38 39  1  0     0  0
 39 40  1  0     0  0
  4  5  1  0     0  0
 36 41  1  6     0  0
 16 20  1  6     0  0
 37 42  1  6     0  0
  9 10  2  0     0  0
 38 43  1  1     0  0
 19 21  1  1     0  0
 39 44  1  6     0  0
  2  3  1  0     0  0
 35 45  1  6     0  0
 17 22  1  1     0  0
 46 24  1  1     0  0
 46 47  1  0     0  0
 10 11  1  0     0  0
 15 23  1  1     0  0
  5  6  2  0     0  0
 21 24  1  0     0  0
 11 12  1  0     0  0
 46 51  1  0     0  0
 47 48  1  0     0  0
 48 49  1  0     0  0
 49 50  1  0     0  0
 50 51  1  0     0  0
 22 25  1  0     0  0
 50 52  1  1     0  0
  6  1  1  0     0  0
 48 53  1  1     0  0
 25 26  1  0     0  0
 47 54  1  6     0  0
 11 13  2  0     0  0
 49 55  1  6     0  0
 26 27  1  0     0  0
 52 56  1  0     0  0
M  END
>  <MOLREGNO>
393248

>  <CHEMBLID>
CHEMBL393090

>  <SYNONYMS>
Echinacoside

>  <MAX_PHASE>
0

>  <MOLWEIGHT>
786.73

>  <ALOGP>
-1.26

>  <PSA>
324.44

>  <HBA>
20

>  <HBD>
12

>  <RO5>
3

>  <RTB>
14

>  <RO3>
N

>  <ACD_MOST_APKA>
9.31

>  <ACD_MOST_BPKA>


>  <ACD_LOGP>
-2.32

>  <ACD_LOGD>
-2.33

>  <AROMATIC_RINGS>
2

>  <HEAVY_ATOMS>
55

>  <QED_WEIGHTED>
.06

>  <HBA_LIPINSKI>
20

>  <HBD_LIPINSKI>
12

>  <NUM_LIPINSKI_RO5_VIOLATIONS>
2

>  <MW_MONOISOTOPIC>
786.2582

>  <MOLECULAR_SPECIES>
NEUTRAL

>  <FULL_MOLFORMULA>
C35H46O20

$$$$

  SciTegic01161211242D

 60 64  0  0  0  0            999 V2000
    2.4647   -5.9234    0.0000 C   0  0  2  0  0  0
    1.7567   -5.5091    0.0000 O   0  0
    1.0444   -5.9169    0.0000 C   0  0  2  0  0  0
    1.0423   -6.7409    0.0000 C   0  0  2  0  0  0
    1.7563   -7.1560    0.0000 C   0  0  2  0  0  0
    2.4721   -6.7473    0.0000 C   0  0  2  0  0  0
    0.3327   -5.5010    0.0000 C   0  0
    2.4804   -5.0980    0.0000 H   0  0
    0.3246   -7.1498    0.0000 O   0  0
    1.7506   -7.9811    0.0000 O   0  0
    3.1875   -7.1568    0.0000 O   0  0
    3.1771   -5.5058    0.0000 C   0  0
    3.1716   -4.6809    0.0000 O   0  0
    8.1804   -3.3849    0.0000 C   0  0
    8.1786   -4.2134    0.0000 C   0  0
    8.8949   -4.6264    0.0000 C   0  0
    9.6096   -4.2126    0.0000 C   0  0
    9.6094   -3.3835    0.0000 C   0  0
    8.8922   -2.9720    0.0000 C   0  0
    7.4623   -4.6250    0.0000 C   0  0
    6.7512   -4.2117    0.0000 C   0  0
    6.0299   -4.6268    0.0000 O   0  0
    5.3055   -4.2287    0.0000 C   0  0  2  0  0  0
    5.2888   -3.4036    0.0000 O   0  0
    4.5746   -3.0056    0.0000 C   0  0  2  0  0  0
    3.8642   -3.4311    0.0000 C   0  0  2  0  0  0
    3.8790   -4.2573    0.0000 C   0  0  2  0  0  0
    4.6001   -4.6580    0.0000 C   0  0  2  0  0  0
    4.5574   -2.1809    0.0000 C   0  0
    3.1420   -3.0331    0.0000 O   0  0
    4.6166   -5.4827    0.0000 O   0  0
    5.2634   -1.7534    0.0000 O   0  0
    5.3392   -5.8807    0.0000 C   0  0
    5.3557   -6.7056    0.0000 O   0  0
    6.0452   -5.4541    0.0000 C   0  0
    2.4359   -3.4597    0.0000 C   0  0
    1.7134   -3.0615    0.0000 C   0  0
    2.4523   -4.2845    0.0000 O   0  0
    1.0073   -3.4882    0.0000 C   0  0
    0.2849   -3.0900    0.0000 C   0  0
    0.2728   -2.2667    0.0000 C   0  0
   -0.4489   -1.8685    0.0000 C   0  0
   -1.1559   -2.2953    0.0000 C   0  0
   -1.1368   -3.1242    0.0000 C   0  0
   -0.4147   -3.5186    0.0000 C   0  0
   -1.8414   -3.5533    0.0000 O   0  0
   -1.8790   -1.8980    0.0000 O   0  0
    5.2261   -0.9265    0.0000 C   0  0  2  0  0  0
    4.4946   -0.5450    0.0000 C   0  0  2  0  0  0
    3.7979   -0.9888    0.0000 O   0  0
    4.4600    0.2805    0.0000 C   0  0  2  0  0  0
    3.7287    0.6621    0.0000 O   0  0
    5.1569    0.7243    0.0000 C   0  0  2  0  0  0
    5.1203    1.5460    0.0000 O   0  0
    5.8882    0.3427    0.0000 C   0  0  2  0  0  0
    5.9228   -0.4827    0.0000 O   0  0
    6.5831    0.7829    0.0000 C   0  0
    7.3145    0.4013    0.0000 O   0  0
   10.3228   -2.9670    0.0000 O   0  0
   10.3264   -4.6234    0.0000 O   0  0
  5 10  1  6
  6 11  1  6
  1  2  1  0
  1  6  1  0
  2  3  1  0
  1 12  1  0
  3  4  1  0
 12 13  1  0
  4  5  1  0
  5  6  1  0
  3  7  1  6
  1  8  1  6
  4  9  1  1
 29 32  1  0
 14 15  2  0
 15 16  1  0
 31 33  1  0
 16 17  2  0
 33 34  2  0
 17 18  1  0
 33 35  1  0
 18 19  2  0
 30 36  1  0
 19 14  1  0
 36 37  1  0
 36 38  2  0
 37 39  2  0
 15 20  1  0
 39 40  1  0
 20 21  1  0
 40 41  2  0
 21 22  1  0
 41 42  1  0
 23 22  1  1
 42 43  2  0
 23 24  1  0
 43 44  1  0
 23 28  1  0
 44 45  2  0
 45 40  1  0
 24 25  1  0
 44 46  1  0
 25 26  1  0
 43 47  1  0
 26 27  1  0
 27 28  1  0
 25 29  1  1
 26 30  1  6
 27 13  1  1
 28 31  1  6
 48 32  1  1
 48 49  1  0
 49 50  1  6
 49 51  1  0
 51 52  1  1
 51 53  1  0
 53 54  1  6
 53 55  1  0
 55 56  1  0
 55 57  1  1
 57 58  1  0
 48 56  1  0
 18 59  1  0
 17 60  1  0
M  END
>  <MOLREGNO>
596946

>  <CHEMBLID>
CHEMBL590289

>  <SYNONYMS>
Tubuloside A

>  <MAX_PHASE>
0

>  <MOLWEIGHT>
842.79

>  <ALOGP>
-1.06

>  <PSA>
330.51

>  <HBA>
21

>  <HBD>
11

>  <RO5>
3

>  <RTB>
17

>  <RO3>
N

>  <ACD_MOST_APKA>
9.31

>  <ACD_MOST_BPKA>


>  <ACD_LOGP>
-1.94

>  <ACD_LOGD>
-1.95

>  <AROMATIC_RINGS>
2

>  <HEAVY_ATOMS>
59

>  <QED_WEIGHTED>
.05

>  <HBA_LIPINSKI>
21

>  <HBD_LIPINSKI>
11

>  <NUM_LIPINSKI_RO5_VIOLATIONS>
2

>  <MW_MONOISOTOPIC>
842.2845

>  <MOLECULAR_SPECIES>
NEUTRAL

>  <FULL_MOLFORMULA>
C38H50O21

$$$$

  SciTegic12231509382D

 47 53  0  0  0  0            999 V2000
   -1.8107    1.1413    0.0000 C   0  0
   -2.3978    0.5377    0.0000 C   0  0
   -0.2195    0.6145    0.0000 O   0  0
   -2.1673   -0.2579    0.0000 C   0  0  2  0  0  0
    2.6666    0.4170    0.0000 C   0  0
    3.1769   -0.2304    0.0000 C   0  0  1  0  0  0
   -2.0301    1.9369    0.0000 C   0  0
   -3.2043    0.7572    0.0000 C   0  0
    1.2565    0.9492    0.0000 C   0  0
   -2.7434   -0.8450    0.0000 N   0  0
    4.0219   -0.0878    0.0000 N   0  0
    1.8052    0.2798    0.0000 C   0  0
    2.9739    1.1906    0.0000 C   0  0
    3.0617   -1.1797    0.0000 C   0  0
   -2.8586    2.1563    0.0000 C   0  0
   -3.4348    1.5638    0.0000 C   0  0
    2.3374   -1.5747    0.0000 C   0  0
    1.6022    1.7064    0.0000 C   0  0
    0.2634   -2.7324    0.0000 O   0  0
    1.6790   -1.1687    0.0000 C   0  0
    2.4471    1.8600    0.0000 C   0  0
    0.9712   -1.5528    0.0000 C   0  0
   -1.1083   -0.2469    0.0000 C   0  0
    0.9492   -2.3374    0.0000 C   0  0
   -3.7969    0.1536    0.0000 C   0  0
   -3.5719   -0.6145    0.0000 C   0  0
    4.3291    0.6804    0.0000 C   0  0
   -0.4280   -2.3209    0.0000 C   0  0
    3.7640    1.3498    0.0000 C   0  0
   -1.1083   -1.1083    0.0000 C   0  0
    2.3264   -2.3703    0.0000 C   0  0
   -0.4280   -1.5144    0.0000 C   0  0
   -1.4462    2.5173    0.0000 O   0  0
    1.6241   -2.7489    0.0000 C   0  0
   -3.0877    2.9470    0.0000 O   0  0
    1.6972   -0.5106    0.0000 O   0  0
    1.0915    2.3530    0.0000 O   0  0
   -2.5730   -1.4810    0.0000 C   0  0
    4.4352   -0.6003    0.0000 C   0  0
   -1.8107   -2.3209    0.0000 C   0  0
   -1.1083   -2.7160    0.0000 C   0  0
   -1.8107   -1.5144    0.0000 C   0  0
   -1.6140    3.1539    0.0000 C   0  0
   -3.7270    3.1048    0.0000 C   0  0
    1.3345    2.9649    0.0000 C   0  0
    3.5737   -0.6093    0.0000 H   0  0
   -1.9523   -0.7627    0.0000 H   0  0
  2  1  1  0
  3  1  1  0
  4  2  1  0
  5 12  1  0
  6  5  1  0
  7  1  2  0
  8  2  2  0
  9  3  1  0
 10  4  1  0
 11  6  1  0
 12  9  2  0
 13 21  1  0
  6 14  1  0
 15  7  1  0
 16 15  2  0
 17 14  1  0
 18  9  1  0
 19 28  1  0
 20 17  2  0
 21 18  2  0
 22 20  1  0
  4 23  1  0
 24 19  1  0
 25  8  1  0
 26 25  1  0
 27 29  1  0
 28 32  2  0
 29 13  1  0
 30 23  1  0
 31 17  1  0
 32 30  1  0
 33  7  1  0
 34 31  2  0
 35 15  1  0
 36 20  1  0
 37 18  1  0
 38 10  1  0
 39 11  1  0
 40 42  1  0
 41 40  2  0
 42 30  2  0
 43 33  1  0
 44 35  1  0
 45 37  1  0
 16  8  1  0
 26 10  1  0
 13  5  2  0
 27 11  1  0
 41 28  1  0
 22 24  2  0
 24 34  1  0
  6 46  1  6
  4 47  1  6
M  END
>  <MOLREGNO>
1593446

>  <CHEMBLID>
CHEMBL3040635

>  <SYNONYMS>


>  <MAX_PHASE>
0

>  <MOLWEIGHT>
608.72

>  <ALOGP>
6.99

>  <PSA>
72.86

>  <HBA>
8

>  <HBD>
1

>  <RO5>
2

>  <RTB>
3

>  <RO3>
N

>  <ACD_MOST_APKA>
7.49

>  <ACD_MOST_BPKA>
9.61

>  <ACD_LOGP>
3.28

>  <ACD_LOGD>
.83

>  <AROMATIC_RINGS>
4

>  <HEAVY_ATOMS>
45

>  <QED_WEIGHTED>
.27

>  <HBA_LIPINSKI>
8

>  <HBD_LIPINSKI>
1

>  <NUM_LIPINSKI_RO5_VIOLATIONS>
1

>  <MW_MONOISOTOPIC>
608.2886

>  <MOLECULAR_SPECIES>
BASE

>  <FULL_MOLFORMULA>
C37H40N2O6

$$$$

  SciTegic07111213592D

 19 21  0  0  0  0            999 V2000
   -0.6957   -0.1468    0.0000 C   0  0
   -0.6957    0.6782    0.0000 C   0  0
    0.0188    1.0907    0.0000 C   0  0
    0.7332    0.6782    0.0000 C   0  0
    1.4477    1.0907    0.0000 C   0  0
    2.1622    0.6782    0.0000 C   0  0
    2.1622   -0.1468    0.0000 C   0  0
    1.4477   -0.5593    0.0000 C   0  0
    0.7332   -0.1468    0.0000 C   0  0
    0.0188   -0.5593    0.0000 O   0  0
    0.0188    1.9157    0.0000 O   0  0
    1.4477    1.9157    0.0000 O   0  0
    2.8766   -0.5593    0.0000 O   0  0
   -1.4102   -1.3843    0.0000 C   0  0
   -2.1247   -1.7968    0.0000 C   0  0
   -2.8391   -1.3843    0.0000 C   0  0
   -2.8391   -0.5593    0.0000 C   0  0
   -2.1247   -0.1468    0.0000 C   0  0
   -1.4102   -0.5593    0.0000 C   0  0
  1  2  2  0
  1 10  1  0
 19  1  1  0
  2  3  1  0
  3  4  1  0
  3 11  2  0
  4  5  2  0
  9  4  1  0
  5  6  1  0
  5 12  1  0
  6  7  2  0
  7  8  1  0
  7 13  1  0
  9  8  2  0
  9 10  1  0
 14 15  2  0
 19 14  1  0
 15 16  1  0
 16 17  2  0
 17 18  1  0
 19 18  2  0
M  END
>  <MOLREGNO>
17853

>  <CHEMBLID>
CHEMBL117

>  <SYNONYMS>
NSC-407436

>  <MAX_PHASE>
0

>  <MOLWEIGHT>
254.24

>  <ALOGP>
2.65

>  <PSA>
66.76

>  <HBA>
4

>  <HBD>
2

>  <RO5>
0

>  <RTB>
1

>  <RO3>
N

>  <ACD_MOST_APKA>
6.5

>  <ACD_MOST_BPKA>


>  <ACD_LOGP>
3.13

>  <ACD_LOGD>
1.92

>  <AROMATIC_RINGS>
2

>  <HEAVY_ATOMS>
19

>  <QED_WEIGHTED>
.82

>  <HBA_LIPINSKI>
4

>  <HBD_LIPINSKI>
2

>  <NUM_LIPINSKI_RO5_VIOLATIONS>
0

>  <MW_MONOISOTOPIC>
254.0579

>  <MOLECULAR_SPECIES>
NEUTRAL

>  <FULL_MOLFORMULA>
C15H10O4

$$$$

  SciTegic01161211222D

 21 23  0  0  0  0            999 V2000
   -1.0009   -0.0333    0.0000 C   0  0
   -1.0021   -0.8602    0.0000 C   0  0
   -0.2876   -1.2728    0.0000 C   0  0
   -0.2894    0.3793    0.0000 C   0  0
    0.4256   -0.0297    0.0000 C   0  0
    0.4244   -0.8622    0.0000 C   0  0
    1.1409   -1.2773    0.0000 C   0  0
    1.8632   -0.8643    0.0000 C   0  0
    1.8644   -0.0317    0.0000 C   0  0
    1.1433    0.3879    0.0000 O   0  0
    1.1386   -2.1019    0.0000 O   0  0
   -1.7165   -1.2719    0.0000 O   0  0
   -1.7151    0.3788    0.0000 O   0  0
   -0.2879   -2.0974    0.0000 O   0  0
   -2.4302   -0.8590    0.0000 C   0  0
    2.5777    0.3762    0.0000 C   0  0
    3.2912   -0.0395    0.0000 C   0  0
    4.0058    0.3703    0.0000 C   0  0
    4.0082    1.1958    0.0000 C   0  0
    3.2901    1.6097    0.0000 C   0  0
    2.5784    1.1974    0.0000 C   0  0
  9 10  1  0
  5  6  1  0
  7 11  2  0
  2 12  1  0
  2  3  1  0
  1 13  1  0
  3  6  2  0
  3 14  1  0
  1  2  2  0
 12 15  1  0
  5  4  2  0
  4  1  1  0
 16 17  2  0
  5 10  1  0
 17 18  1  0
  6  7  1  0
 18 19  2  0
  7  8  1  0
 19 20  1  0
  8  9  2  0
 20 21  2  0
 21 16  1  0
  9 16  1  0
M  END
>  <MOLREGNO>
305184

>  <CHEMBLID>
CHEMBL183513

>  <SYNONYMS>
OROXYLIN A

>  <MAX_PHASE>
0

>  <MOLWEIGHT>
284.26

>  <ALOGP>
2.64

>  <PSA>
75.99

>  <HBA>
5

>  <HBD>
2

>  <RO5>
0

>  <RTB>
2

>  <RO3>
N

>  <ACD_MOST_APKA>
6.48

>  <ACD_MOST_BPKA>


>  <ACD_LOGP>
3.04

>  <ACD_LOGD>
1.82

>  <AROMATIC_RINGS>
2

>  <HEAVY_ATOMS>
21

>  <QED_WEIGHTED>
.89

>  <HBA_LIPINSKI>
5

>  <HBD_LIPINSKI>
2

>  <NUM_LIPINSKI_RO5_VIOLATIONS>
0

>  <MW_MONOISOTOPIC>
284.0685

>  <MOLECULAR_SPECIES>
ACID

>  <FULL_MOLFORMULA>
C16H12O5

$$$$

  SciTegic12231509382D

 26 30  0  0  1  0            999 V2000
    3.2542   -2.3542    0.0000 N   0  0
    4.6792   -2.3417    0.0000 C   0  0
    3.2417   -1.5292    0.0000 C   0  0
    4.6792   -1.5125    0.0000 C   0  0
    3.9750   -2.7667    0.0000 C   0  0
    1.8042   -1.5417    0.0000 C   0  0
    3.9542   -1.1042    0.0000 C   0  0
    5.3917   -1.0875    0.0000 C   0  0  1  0  0  0
    1.8125   -2.3792    0.0000 C   0  0
    1.0875   -1.1375    0.0000 N   0  0
    2.5417   -2.7917    0.0000 C   0  0
    6.1167   -1.5000    0.0000 C   0  0
    5.4042   -2.7500    0.0000 C   0  0
    6.1167   -2.3292    0.0000 O   0  0
    1.0917   -2.7917    0.0000 C   0  0
    0.3792   -1.5542    0.0000 C   0  0
    3.9792   -3.5917    0.0000 O   0  0
    6.1042   -0.6667    0.0000 O   0  0
    0.3792   -2.3792    0.0000 C   0  0
    6.8167   -1.0792    0.0000 O   0  0
    5.3792   -0.2625    0.0000 C   0  0
   -0.3375   -1.1417    0.0000 C   0  0
   -0.3375   -2.7917    0.0000 C   0  0
    6.0917    0.1583    0.0000 C   0  0
   -1.0500   -2.3792    0.0000 C   0  0
   -1.0500   -1.5542    0.0000 C   0  0
  2  5  1  0
  3  1  1  0
  4  2  2  0
  5  1  1  0
  6  3  1  0
  7  3  2  0
  8  4  1  0
  9 11  1  0
 10  6  2  0
 11  1  1  0
 12 14  1  0
 13  2  1  0
 14 13  1  0
 15  9  2  0
 16 10  1  0
 17  5  2  0
  8 18  1  6
 19 15  1  0
 20 12  2  0
 21  8  1  0
 22 16  2  0
 23 19  2  0
 24 21  1  0
 25 23  1  0
 26 22  1  0
  9  6  1  0
  7  4  1  0
 19 16  1  0
  8 12  1  0
 25 26  2  0
M  END
>  <MOLREGNO>
5105

>  <CHEMBLID>
CHEMBL65

>  <SYNONYMS>
NSC-94600

>  <MAX_PHASE>
0

>  <MOLWEIGHT>
348.35

>  <ALOGP>
1.75

>  <PSA>
79.73

>  <HBA>
5

>  <HBD>
1

>  <RO5>
0

>  <RTB>
1

>  <RO3>
N

>  <ACD_MOST_APKA>
11.24

>  <ACD_MOST_BPKA>
4.76

>  <ACD_LOGP>
.95

>  <ACD_LOGD>
.95

>  <AROMATIC_RINGS>
2

>  <HEAVY_ATOMS>
26

>  <QED_WEIGHTED>
.79

>  <HBA_LIPINSKI>
6

>  <HBD_LIPINSKI>
1

>  <NUM_LIPINSKI_RO5_VIOLATIONS>
0

>  <MW_MONOISOTOPIC>
348.111

>  <MOLECULAR_SPECIES>
NEUTRAL

>  <FULL_MOLFORMULA>
C20H16N2O4

$$$$

  SciTegic01161211222D

 27 31  0  0  0  0            999 V2000
   16.7310  -30.2286    0.0000 C   0  0
   15.9173  -30.3644    0.0000 C   0  0
   15.3847  -29.7214    0.0000 C   0  0  2  0  0  0
   14.6804  -29.3060    0.0000 C   0  0
   14.6921  -28.4810    0.0000 C   0  0
   15.4090  -28.0766    0.0000 C   0  0
   16.1190  -28.4968    0.0000 O   0  0
   16.1120  -29.3214    0.0000 C   0  0
   16.8219  -29.7415    0.0000 O   0  0
   13.9822  -28.0608    0.0000 C   0  0
   13.9891  -27.2362    0.0000 O   0  0
   13.2605  -28.4657    0.0000 N   0  0
   12.4808  -28.2016    0.0000 C   0  0
   11.9867  -28.8623    0.0000 C   0  0
   12.4665  -29.5365    0.0000 C   0  0
   13.2534  -29.2902    0.0000 C   0  0
   13.9633  -29.7103    0.0000 C   0  0
   12.1204  -30.2881    0.0000 N   0  0
   11.2990  -30.3650    0.0000 C   0  0
   10.9570  -31.1115    0.0000 C   0  0
   10.1356  -31.1886    0.0000 C   0  0
    9.6563  -30.5190    0.0000 C   0  0
   10.0024  -29.7674    0.0000 C   0  0
   10.8238  -29.6905    0.0000 C   0  0
   11.1653  -28.9392    0.0000 C   0  0
    8.8349  -30.5960    0.0000 O   0  0
   14.8608  -30.3589    0.0000 O   0  0
  1  2  1  0
  3  2  1  6
  3  4  1  0
  4  5  2  0
  5  6  1  0
  6  7  1  0
  7  8  1  0
  3  8  1  0
  8  9  2  0
  5 10  1  0
 10 11  2  0
 10 12  1  0
 12 13  1  0
 13 14  1  0
 14 15  2  0
 15 16  1  0
 12 16  1  0
 16 17  2  0
  4 17  1  0
 15 18  1  0
 18 19  2  0
 19 20  1  0
 20 21  2  0
 21 22  1  0
 22 23  2  0
 23 24  1  0
 19 24  1  0
 24 25  2  0
 14 25  1  0
 22 26  1  0
  3 27  1  0
M  END
>  <MOLREGNO>
7427

>  <CHEMBLID>
CHEMBL273862

>  <SYNONYMS>
10-Hydroxycamptothecin | 10-Hydroxy Camptothecin | Hydroxycamptothecin | 10-Hydroxycamptothecine | 10-Hydroxy-Camptothecin

>  <MAX_PHASE>
0

>  <MOLWEIGHT>
364.35

>  <ALOGP>
1.5

>  <PSA>
99.96

>  <HBA>
6

>  <HBD>
2

>  <RO5>
0

>  <RTB>
1

>  <RO3>
N

>  <ACD_MOST_APKA>
8.93

>  <ACD_MOST_BPKA>
4.97

>  <ACD_LOGP>
.57

>  <ACD_LOGD>
.55

>  <AROMATIC_RINGS>
2

>  <HEAVY_ATOMS>
27

>  <QED_WEIGHTED>
.74

>  <HBA_LIPINSKI>
7

>  <HBD_LIPINSKI>
2

>  <NUM_LIPINSKI_RO5_VIOLATIONS>
0

>  <MW_MONOISOTOPIC>
364.1059

>  <MOLECULAR_SPECIES>
NEUTRAL

>  <FULL_MOLFORMULA>
C20H16N2O5

$$$$

  CDK    9/16/09,10:4

 29 33  0  0  0  0  0  0  0  0999 V2000
   14.4736  -24.6291    0.0000 C   0  0  0  0  0  0  0  0  0  0  0  0
   14.4724  -25.4565    0.0000 C   0  0  0  0  0  0  0  0  0  0  0  0
   15.1872  -25.8694    0.0000 C   0  0  0  0  0  0  0  0  0  0  0  0
   15.1854  -24.2164    0.0000 C   0  0  0  0  0  0  0  0  0  0  0  0
   15.9050  -24.6255    0.0000 C   0  0  0  0  0  0  0  0  0  0  0  0
   15.9059  -25.4527    0.0000 C   0  0  0  0  0  0  0  0  0  0  0  0
   16.6193  -25.8638    0.0000 N   0  0  0  0  0  0  0  0  0  0  0  0
   16.6136  -24.2110    0.0000 C   0  0  0  0  0  0  0  0  0  0  0  0
   17.3317  -24.6146    0.0000 C   0  0  0  0  0  0  0  0  0  0  0  0
   17.3392  -25.4458    0.0000 C   0  0  0  0  0  0  0  0  0  0  0  0
   18.1154  -24.3543    0.0000 C   0  0  0  0  0  0  0  0  0  0  0  0
   18.6094  -25.0166    0.0000 N   0  0  0  0  0  0  0  0  0  0  0  0
   18.1279  -25.6899    0.0000 C   0  0  0  0  0  0  0  0  0  0  0  0
   19.4274  -25.0939    0.0000 C   0  0  0  0  0  0  0  0  0  0  0  0
   19.7702  -25.8389    0.0000 C   0  0  0  0  0  0  0  0  0  0  0  0
   19.2945  -26.5118    0.0000 C   0  0  0  0  0  0  0  0  0  0  0  0
   19.6336  -27.2558    0.0000 C   0  0  0  0  0  0  0  0  0  0  0  0
   20.4535  -27.3368    0.0000 C   0  0  0  0  0  0  0  0  0  0  0  0
   20.9292  -26.6638    0.0000 O   0  0  0  0  0  0  0  0  0  0  0  0
   20.5891  -25.9141    0.0000 C   0  0  0  0  0  0  0  0  0  0  0  0
   19.9018  -24.4189    0.0000 O   0  0  0  0  0  0  0  0  0  0  0  0
   20.7938  -28.0859    0.0000 O   0  0  0  0  0  0  0  0  0  0  0  0
   20.0417  -27.9667    0.0000 O   0  0  0  0  0  0  0  0  0  0  0  0
   18.8095  -27.2149    0.0000 C   0  0  0  0  0  0  0  0  0  0  0  0
   18.4335  -26.4811    0.0000 C   0  0  0  0  0  0  0  0  0  0  0  0
   18.3615  -27.9077    0.0000 C   0  0  0  0  0  0  0  0  0  0  0  0
   16.6065  -23.3861    0.0000 C   0  0  0  0  0  0  0  0  0  0  0  0
   17.3174  -22.9674    0.0000 C   0  0  0  0  0  0  0  0  0  0  0  0
   13.7590  -24.2168    0.0000 O   0  0  0  0  0  0  0  0  0  0  0  0
 13 25  2  0  0  0  0 
 25 16  1  0  0  0  0 
  3  6  2  0  0  0  0 
 15 14  1  0  0  0  0 
 14 12  1  0  0  0  0 
 15 16  2  0  0  0  0 
  6  7  1  0  0  0  0 
  7 10  2  0  0  0  0 
  1  2  2  0  0  0  0 
  9  8  2  0  0  0  0 
  8  5  1  0  0  0  0 
  9 10  1  0  0  0  0 
 15 20  1  0  0  0  0 
 16 17  1  0  0  0  0 
 17 18  1  0  0  0  0 
 18 19  1  0  0  0  0 
 19 20  1  0  0  0  0 
  5  4  2  0  0  0  0 
 14 21  2  0  0  0  0 
  4  1  1  0  0  0  0 
 18 22  2  0  0  0  0 
 17 23  1  1  0  0  0 
 10 13  1  0  0  0  0 
 17 24  1  0  0  0  0 
 12 11  1  0  0  0  0 
 11  9  1  0  0  0  0 
 24 26  1  0  0  0  0 
  2  3  1  0  0  0  0 
  8 27  1  0  0  0  0 
  5  6  1  0  0  0  0 
 27 28  1  0  0  0  0 
 12 13  1  0  0  0  0 
  1 29  1  0  0  0  0 
M  END
>  <MOLREGNO>
61315

>  <CHEMBLID>
CHEMBL837

>  <SYNONYMS>
7-Ethyl-10-Hydroxy-Camptothecin

>  <MAX_PHASE>
0

>  <MOLWEIGHT>
392.4

>  <ALOGP>
2.45

>  <PSA>
99.96

>  <HBA>
6

>  <HBD>
2

>  <RO5>
0

>  <RTB>
2

>  <RO3>
N

>  <ACD_MOST_APKA>
9.13

>  <ACD_MOST_BPKA>
5.75

>  <ACD_LOGP>
1.9

>  <ACD_LOGD>
1.87

>  <AROMATIC_RINGS>
2

>  <HEAVY_ATOMS>
29

>  <QED_WEIGHTED>
.76

>  <HBA_LIPINSKI>
7

>  <HBD_LIPINSKI>
2

>  <NUM_LIPINSKI_RO5_VIOLATIONS>
0

>  <MW_MONOISOTOPIC>
392.1372

>  <MOLECULAR_SPECIES>
NEUTRAL

>  <FULL_MOLFORMULA>
C22H20N2O5

$$$$

  SciTegic12231509382D

 43 49  0  0  0  0            999 V2000
    4.1667   -6.3875    0.0000 N   0  0
    5.1667   -7.1000    0.0000 C   0  0
    3.7625   -6.9583    0.0000 C   0  0
    4.7542   -7.6750    0.0000 C   0  0
    4.8792   -6.4542    0.0000 C   0  0
    3.0917   -6.7458    0.0000 C   0  0
    3.0875   -6.0458    0.0000 C   0  0
    4.0542   -7.6042    0.0000 C   0  0
    2.4917   -7.1000    0.0000 N   0  0
    5.0375   -8.3167    0.0000 C   0  0  1  0  0  0
    3.7500   -5.8208    0.0000 C   0  0
   -0.5625   -6.0750    0.0000 C   0  0
    2.4792   -5.7042    0.0000 C   0  0
   -1.1750   -5.7208    0.0000 N   0  0
    5.7417   -8.3917    0.0000 C   0  0
    1.8792   -6.0583    0.0000 C   0  0
    1.8833   -6.7583    0.0000 C   0  0
    5.8708   -7.1708    0.0000 C   0  0
    6.1583   -7.8167    0.0000 O   0  0
   -3.0125   -4.6667    0.0000 N   0  0
    0.0500   -5.7208    0.0000 O   0  0
   -2.4042   -5.0208    0.0000 C   0  0
    5.2917   -5.8792    0.0000 O   0  0
    1.2708   -5.7125    0.0000 C   0  0
   -2.4000   -5.7292    0.0000 C   0  0
   -1.7917   -4.6625    0.0000 C   0  0
   -1.7875   -6.0792    0.0000 C   0  0
   -1.1750   -5.0167    0.0000 C   0  0
   -0.5625   -6.7833    0.0000 O   0  0
    0.6667   -6.0708    0.0000 C   0  0
    6.0333   -9.0375    0.0000 O   0  0
    1.2875   -7.1125    0.0000 C   0  0
    4.4000   -8.6125    0.0000 O   0  0
    0.6792   -6.7708    0.0000 C   0  0
    4.9708   -9.0250    0.0000 C   0  0
    2.4750   -4.9958    0.0000 C   0  0
   -3.6250   -5.0250    0.0000 C   0  0
   -3.0167   -3.9625    0.0000 C   0  0
    4.3292   -9.3208    0.0000 C   0  0
    3.0833   -4.6333    0.0000 C   0  0
   -3.6333   -3.6125    0.0000 C   0  0
   -4.2375   -4.6792    0.0000 C   0  0
   -4.2458   -3.9708    0.0000 C   0  0
  2  5  1  0
  3  1  1  0
  4  8  1  0
  5  1  1  0
  6  3  1  0
  7 11  1  0
  8  3  2  0
  9  6  2  0
 10  4  1  0
 11  1  1  0
 12 21  1  0
 13  7  2  0
 14 12  1  0
 15 10  1  0
 16 13  1  0
 17  9  1  0
 18  2  1  0
 19 18  1  0
 20 22  1  0
 21 30  1  0
 22 26  1  0
 23  5  2  0
 24 16  1  0
 25 27  1  0
 26 28  1  0
 27 14  1  0
 28 14  1  0
 29 12  2  0
 30 24  2  0
 31 15  2  0
 32 17  1  0
 33 10  1  0
 34 32  2  0
 10 35  1  6
 36 13  1  0
 37 20  1  0
 38 20  1  0
 39 35  1  0
 40 36  1  0
 41 38  1  0
 42 37  1  0
 43 41  1  0
  7  6  1  0
  4  2  2  0
 16 17  2  0
 15 19  1  0
 34 30  1  0
 22 25  1  0
 43 42  1  0
M  END
>  <MOLREGNO>
5985

>  <CHEMBLID>
CHEMBL481

>  <SYNONYMS>
Campto | irinotecan hydrochloride | U-101440E | Camptosar | IRINOTECAN HYDROCHLORIDE | IRINOTECAN | CAMPTOSAR | U-101,440E

>  <MAX_PHASE>
4

>  <MOLWEIGHT>
586.68

>  <ALOGP>
3.69

>  <PSA>
112.51

>  <HBA>
8

>  <HBD>
1

>  <RO5>
1

>  <RTB>
5

>  <RO3>
N

>  <ACD_MOST_APKA>
9.48

>  <ACD_MOST_BPKA>
7.27

>  <ACD_LOGP>
4.74

>  <ACD_LOGD>
4.66

>  <AROMATIC_RINGS>
2

>  <HEAVY_ATOMS>
43

>  <QED_WEIGHTED>
.53

>  <HBA_LIPINSKI>
10

>  <HBD_LIPINSKI>
1

>  <NUM_LIPINSKI_RO5_VIOLATIONS>
0

>  <MW_MONOISOTOPIC>
586.2791

>  <MOLECULAR_SPECIES>
NEUTRAL

>  <FULL_MOLFORMULA>
C33H38N4O6

$$$$

  CDK    9/16/09,9:20

 12 13  0  0  0  0  0  0  0  0999 V2000
   -5.4559  -21.2508    0.0000 C   0  0  0  0  0  0  0  0  0  0  0  0
   -5.1083  -20.6242    0.0000 C   0  0  0  0  0  0  0  0  0  0  0  0
   -4.4994  -20.1985    0.0000 C   0  0  0  0  0  0  0  0  0  0  0  0
   -4.7177  -20.8824    0.0000 C   0  0  0  0  0  0  0  0  0  0  0  0
   -4.6540  -19.4206    0.0000 C   0  0  0  0  0  0  0  0  0  0  0  0
   -3.7437  -20.6386    0.0000 C   0  0  0  0  0  0  0  0  0  0  0  0
   -4.0274  -21.2332    0.0000 C   0  0  0  0  0  0  0  0  0  0  0  0
   -3.8984  -19.5896    0.0000 C   0  0  0  0  0  0  0  0  0  0  0  0
   -4.2315  -18.6792    0.0000 C   0  0  0  0  0  0  0  0  0  0  0  0
   -5.2630  -18.8116    0.0000 C   0  0  0  0  0  0  0  0  0  0  0  0
   -4.9442  -21.7067    0.0000 H   0  0  0  0  0  0  0  0  0  0  0  0
   -2.9278  -20.3864    0.0000 O   0  0  0  0  0  0  0  0  0  0  0  0
  1  2  1  0  0  0  0 
  2  3  1  0  0  0  0 
  1  4  1  0  0  0  0 
  4  5  1  0  0  0  0 
  5  3  1  0  0  0  0 
  3  6  1  0  0  0  0 
  6  7  1  0  0  0  0 
  7  4  1  0  0  0  0 
  3  8  1  1  0  0  0 
  5  9  1  0  0  0  0 
  5 10  1  0  0  0  0 
  4 11  1  6  0  0  0 
  6 12  1  1  0  0  0 
M  END
>  <MOLREGNO>
445022

>  <CHEMBLID>
CHEMBL486208

>  <SYNONYMS>
(-) Borneol | Borneol

>  <MAX_PHASE>
0

>  <MOLWEIGHT>
154.25

>  <ALOGP>
1.98

>  <PSA>
20.23

>  <HBA>
1

>  <HBD>
1

>  <RO5>
0

>  <RTB>
0

>  <RO3>
Y

>  <ACD_MOST_APKA>


>  <ACD_MOST_BPKA>


>  <ACD_LOGP>
2.55

>  <ACD_LOGD>
2.55

>  <AROMATIC_RINGS>
0

>  <HEAVY_ATOMS>
11

>  <QED_WEIGHTED>
.57

>  <HBA_LIPINSKI>
1

>  <HBD_LIPINSKI>
1

>  <NUM_LIPINSKI_RO5_VIOLATIONS>
0

>  <MW_MONOISOTOPIC>
154.1358

>  <MOLECULAR_SPECIES>
NEUTRAL

>  <FULL_MOLFORMULA>
C10H18O

$$$$

  Mrv0541 04051115152D          

 11 11  0  0  0  0            999 V2000
   -0.4573    1.6876    0.0000 C   0  0  0  0  0  0  0  0  0  0  0  0
   -1.1718    2.1001    0.0000 O   0  0  0  0  0  0  0  0  0  0  0  0
    0.2572    2.1001    0.0000 O   0  0  0  0  0  0  0  0  0  0  0  0
   -0.4573    0.8626    0.0000 C   0  0  0  0  0  0  0  0  0  0  0  0
    0.2572    0.4501    0.0000 C   0  0  0  0  0  0  0  0  0  0  0  0
    0.2572   -0.3749    0.0000 C   0  0  0  0  0  0  0  0  0  0  0  0
    0.9716   -0.7874    0.0000 C   0  0  0  0  0  0  0  0  0  0  0  0
    0.9716   -1.6124    0.0000 C   0  0  0  0  0  0  0  0  0  0  0  0
    0.2572   -2.0249    0.0000 C   0  0  0  0  0  0  0  0  0  0  0  0
   -0.4573   -1.6124    0.0000 C   0  0  0  0  0  0  0  0  0  0  0  0
   -0.4573   -0.7874    0.0000 C   0  0  0  0  0  0  0  0  0  0  0  0
  1  2  2  0  0  0  0
  1  3  1  0  0  0  0
  1  4  1  0  0  0  0
  4  5  2  0  0  0  0
  5  6  1  0  0  0  0
  6  7  2  0  0  0  0
  6 11  1  0  0  0  0
  7  8  1  0  0  0  0
  8  9  2  0  0  0  0
  9 10  1  0  0  0  0
 10 11  2  0  0  0  0
M  END
>  <MOLREGNO>
37915

>  <CHEMBLID>
CHEMBL27246

>  <SYNONYMS>
Cinnamic Acid | 3-Phenylacrylic Acid | E-Cinnamic Acid | (E)-Cinnamic Acid | Trans-Cinnamic Acid

>  <MAX_PHASE>
0

>  <MOLWEIGHT>
148.16

>  <ALOGP>
1.93

>  <PSA>
37.29

>  <HBA>
2

>  <HBD>
1

>  <RO5>
0

>  <RTB>
2

>  <RO3>
Y

>  <ACD_MOST_APKA>
4.34

>  <ACD_MOST_BPKA>


>  <ACD_LOGP>
1.21

>  <ACD_LOGD>
-1.77

>  <AROMATIC_RINGS>
1

>  <HEAVY_ATOMS>
11

>  <QED_WEIGHTED>
.65

>  <HBA_LIPINSKI>
2

>  <HBD_LIPINSKI>
1

>  <NUM_LIPINSKI_RO5_VIOLATIONS>
0

>  <MW_MONOISOTOPIC>
148.0524

>  <MOLECULAR_SPECIES>
ACID

>  <FULL_MOLFORMULA>
C9H8O2

$$$$

  SciTegic01161211222D

 10 10  0  0  0  0            999 V2000
    1.6500    0.7145    0.0000 C   0  0
    0.8250    0.7145    0.0000 C   0  0
    0.4125    0.0000    0.0000 C   0  0
   -0.4125    0.0000    0.0000 C   0  0
   -0.8250   -0.7145    0.0000 C   0  0
   -1.6500   -0.7145    0.0000 C   0  0
   -2.0625    0.0000    0.0000 C   0  0
   -1.6500    0.7145    0.0000 C   0  0
   -0.8250    0.7145    0.0000 C   0  0
    2.0625    0.0000    0.0000 O   0  0
  1  2  1  0
  2  3  2  0
  3  4  1  0
  4  5  1  0
  5  6  2  0
  6  7  1  0
  7  8  2  0
  8  9  1  0
  4  9  2  0
  1 10  1  0
M  END
>  <MOLREGNO>
195968

>  <CHEMBLID>
CHEMBL324794

>  <SYNONYMS>
(E)-Cinnam Alcohol | Cinnamic Alcohol | Cinnamyl Alcohol

>  <MAX_PHASE>
0

>  <MOLWEIGHT>
134.18

>  <ALOGP>
1.69

>  <PSA>
20.23

>  <HBA>
1

>  <HBD>
1

>  <RO5>
0

>  <RTB>
2

>  <RO3>
Y

>  <ACD_MOST_APKA>


>  <ACD_MOST_BPKA>


>  <ACD_LOGP>
1.58

>  <ACD_LOGD>
1.58

>  <AROMATIC_RINGS>
1

>  <HEAVY_ATOMS>
10

>  <QED_WEIGHTED>
.65

>  <HBA_LIPINSKI>
1

>  <HBD_LIPINSKI>
1

>  <NUM_LIPINSKI_RO5_VIOLATIONS>
0

>  <MW_MONOISOTOPIC>
134.0732

>  <MOLECULAR_SPECIES>
NEUTRAL

>  <FULL_MOLFORMULA>
C9H10O

$$$$

  SciTegic01161211222D

 10 10  0  0  0  0            999 V2000
    9.1435   -7.8700    0.0000 C   0  0
    9.1423   -8.6973    0.0000 C   0  0
    9.8571   -9.1101    0.0000 C   0  0
   10.5735   -8.6968    0.0000 C   0  0
   10.5706   -7.8664    0.0000 C   0  0
    9.8553   -7.4573    0.0000 C   0  0
   11.2835   -7.4513    0.0000 C   0  0
   11.9994   -7.8610    0.0000 C   0  0
   12.7122   -7.4459    0.0000 C   0  0
   13.4282   -7.8556    0.0000 O   0  0
  2  3  1  0
  5  6  2  0
  6  1  1  0
  1  2  2  0
  5  7  1  0
  3  4  2  0
  7  8  2  0
  8  9  1  0
  4  5  1  0
  9 10  2  0
M  END
>  <MOLREGNO>
81858

>  <CHEMBLID>
CHEMBL293492

>  <SYNONYMS>
CINNAMIC ALDEHYDE | CINNAMALDEHYDE

>  <MAX_PHASE>
0

>  <MOLWEIGHT>
132.16

>  <ALOGP>
1.95

>  <PSA>
17.07

>  <HBA>
1

>  <HBD>
0

>  <RO5>
0

>  <RTB>
2

>  <RO3>
Y

>  <ACD_MOST_APKA>


>  <ACD_MOST_BPKA>


>  <ACD_LOGP>
1.9

>  <ACD_LOGD>
1.9

>  <AROMATIC_RINGS>
1

>  <HEAVY_ATOMS>
10

>  <QED_WEIGHTED>
.44

>  <HBA_LIPINSKI>
1

>  <HBD_LIPINSKI>
0

>  <NUM_LIPINSKI_RO5_VIOLATIONS>
0

>  <MW_MONOISOTOPIC>
132.0575

>  <MOLECULAR_SPECIES>


>  <FULL_MOLFORMULA>
C9H8O

$$$$

  SciTegic01161211252D

 30 32  0  0  0  0            999 V2000
    5.1787   -1.9958    0.0000 O   0  0
    5.8708   -2.4354    0.0000 C   0  0  1  0  0  0
    6.6017   -2.0527    0.0000 C   0  0  2  0  0  0
    6.6350   -1.2271    0.0000 O   0  0
    7.2992   -2.4955    0.0000 C   0  0  1  0  0  0
    8.0300   -2.1128    0.0000 O   0  0
    7.2658   -3.3210    0.0000 C   0  0  2  0  0  0
    7.9614   -3.7601    0.0000 O   0  0
    6.5350   -3.7037    0.0000 C   0  0  2  0  0  0
    5.8375   -3.2609    0.0000 O   0  0
    6.4997   -4.5256    0.0000 C   0  0
    5.7689   -4.9083    0.0000 O   0  0
    5.1787   -1.1708    0.0000 C   0  0  2  0  0  0
    5.8907   -0.7625    0.0000 O   0  0
    5.8907    0.0625    0.0000 C   0  0
    5.1787    0.4792    0.0000 C   0  0
    4.4667   -0.7625    0.0000 C   0  0  1  0  0  0
    4.4667    0.0671    0.0000 C   0  0  2  0  0  0
    3.6777    0.3235    0.0000 C   0  0
    3.1900   -0.3477    0.0000 C   0  0  1  0  0  0
    3.6777   -1.0187    0.0000 C   0  0  2  0  0  0
    4.4625    0.8958    0.0000 H   0  0
    4.4625   -1.5875    0.0000 H   0  0
    5.1807    1.3042    0.0000 C   0  0
    5.8961    1.7150    0.0000 O   0  0
    4.4672    1.7184    0.0000 O   0  0
    6.6096    1.3008    0.0000 C   0  0
    5.1500   -2.8417    0.0000 H   0  0
    2.3650   -0.3477    0.0000 O   0  0
    3.4227   -1.8034    0.0000 C   0  0
 17 13  1  0
 13 14  1  0
 14 15  1  0
 15 16  2  0
 17 18  1  0
  3  5  1  0
  5  6  1  1
  5  7  1  0
  7  8  1  6
  7  9  1  0
 18 19  1  0
 19 20  1  0
 20 21  1  0
 21 17  1  0
  9 10  1  0
 18 22  1  1
  9 11  1  1
 17 23  1  1
 11 12  1  0
 16 24  1  0
  2 10  1  0
 24 25  1  0
 24 26  2  0
  2  1  1  0
 25 27  1  0
 13  1  1  1
  2  3  1  0
  2 28  1  6
  3  4  1  6
 20 29  1  1
 18 16  1  0
 21 30  1  1
M  END
>  <MOLREGNO>
611092

>  <CHEMBLID>
CHEMBL1081584

>  <SYNONYMS>
Loganin

>  <MAX_PHASE>
0

>  <MOLWEIGHT>
390.38

>  <ALOGP>
-1.9

>  <PSA>
155.14

>  <HBA>
10

>  <HBD>
5

>  <RO5>
0

>  <RTB>
5

>  <RO3>
N

>  <ACD_MOST_APKA>
12.8

>  <ACD_MOST_BPKA>


>  <ACD_LOGP>
-1.99

>  <ACD_LOGD>
-1.99

>  <AROMATIC_RINGS>
0

>  <HEAVY_ATOMS>
27

>  <QED_WEIGHTED>
.34

>  <HBA_LIPINSKI>
10

>  <HBD_LIPINSKI>
5

>  <NUM_LIPINSKI_RO5_VIOLATIONS>
0

>  <MW_MONOISOTOPIC>
390.1526

>  <MOLECULAR_SPECIES>
NEUTRAL

>  <FULL_MOLFORMULA>
C17H26O10

$$$$

  CDK    12/20/10,14:28

 31 33  0  0  0  0  0  0  0  0999 V2000
    7.3420   -2.5910    0.0000 O   0  0  0  0  0  0  0  0  0  0  0  0
    7.3420   -0.9360    0.0000 O   0  0  0  0  0  0  0  0  0  0  0  0
    5.9080   -0.1084    0.0000 O   0  0  0  0  0  0  0  0  0  0  0  0
    4.4781   -0.9359    0.0000 O   0  0  0  0  0  0  0  0  0  0  0  0
    5.9079   -2.5910    0.0000 O   0  0  0  0  0  0  0  0  0  0  0  0
    3.8493   -2.0568    0.0000 O   0  0  0  0  0  0  0  0  0  0  0  0
    6.6291   -2.1793    0.0000 C   0  0  0  0  0  0  0  0  0  0  0  0
    6.6291   -1.3518    0.0000 C   0  0  0  0  0  0  0  0  0  0  0  0
    5.9079   -0.9359    0.0000 C   0  0  0  0  0  0  0  0  0  0  0  0
    5.1952   -1.3517    0.0000 C   0  0  0  0  0  0  0  0  0  0  0  0
    5.1952   -2.1792    0.0000 C   0  0  0  0  0  0  0  0  0  0  0  0
    4.4781   -2.5909    0.0000 C   0  0  0  0  0  0  0  0  0  0  0  0
    9.4667   -4.6542    0.0000 C   0  0  0  0  0  0  0  0  0  0  0  0
    9.4667   -3.8292    0.0000 O   0  0  0  0  0  0  0  0  0  0  0  0
    8.7546   -3.4208    0.0000 C   0  0  0  0  0  0  0  0  0  0  0  0
    8.7546   -5.0708    0.0000 C   0  0  0  0  0  0  0  0  0  0  0  0
   10.1823   -5.0646    0.0000 O   0  0  0  0  0  0  0  0  0  0  0  0
    8.0426   -4.6542    0.0000 C   0  0  0  0  0  0  0  0  0  0  0  0
    8.0461   -3.8292    0.0000 C   0  0  0  0  0  0  0  0  0  0  0  0
    7.3374   -3.4159    0.0000 C   0  0  0  0  0  0  0  0  0  0  0  0
    6.6206   -3.8231    0.0000 O   0  0  0  0  0  0  0  0  0  0  0  0
    6.6171   -4.6481    0.0000 C   0  0  0  0  0  0  0  0  0  0  0  0
    7.3304   -5.0659    0.0000 C   0  0  0  0  0  0  0  0  0  0  0  0
    7.3280   -5.8909    0.0000 C   0  0  0  0  0  0  0  0  0  0  0  0
    6.6124   -6.3014    0.0000 O   0  0  0  0  0  0  0  0  0  0  0  0
    8.0413   -6.3055    0.0000 O   0  0  0  0  0  0  0  0  0  0  0  0
    5.8991   -5.8868    0.0000 C   0  0  0  0  0  0  0  0  0  0  0  0
    8.7538   -2.5958    0.0000 C   0  0  0  0  0  0  0  0  0  0  0  0
    6.6333   -3.0083    0.0000 H   0  0  0  0  0  0  0  0  0  0  0  0
    8.0417   -3.0042    0.0000 H   0  0  0  0  0  0  0  0  0  0  0  0
    8.0375   -5.4792    0.0000 H   0  0  0  0  0  0  0  0  0  0  0  0
 13 16  1  0  0  0  0 
 14 15  1  0  0  0  0 
 15 19  1  0  0  0  0 
 18 16  1  0  0  0  0 
  7  8  1  0  0  0  0 
 13 17  1  1  0  0  0 
 18 19  1  0  0  0  0 
  8  9  1  0  0  0  0 
  9 10  1  0  0  0  0 
 10 11  1  0  0  0  0 
 11 12  1  6  0  0  0 
  7  1  1  0  0  0  0 
  8  2  1  1  0  0  0 
 18 23  1  0  0  0  0 
 19 20  1  0  0  0  0 
 20 21  1  0  0  0  0 
 21 22  1  0  0  0  0 
 22 23  2  0  0  0  0 
  9  3  1  6  0  0  0 
 23 24  1  0  0  0  0 
 10  4  1  1  0  0  0 
 24 25  1  0  0  0  0 
 13 14  1  0  0  0  0 
 24 26  2  0  0  0  0 
 25 27  1  0  0  0  0 
  6 12  1  0  0  0  0 
 15 28  1  6  0  0  0 
 20  1  1  1  0  0  0 
 11  5  1  0  0  0  0 
  7 29  1  1  0  0  0 
 19 30  1  1  0  0  0 
  5  7  1  0  0  0  0 
 18 31  1  1  0  0  0 
M  END
>  <MOLREGNO>
683610

>  <CHEMBLID>
CHEMBL1209803

>  <SYNONYMS>
(7Beta-Hydroxy)-Morroniside | Morroniside

>  <MAX_PHASE>
0

>  <MOLWEIGHT>
406.38

>  <ALOGP>
-2.28

>  <PSA>
164.36

>  <HBA>
11

>  <HBD>
5

>  <RO5>
1

>  <RTB>
5

>  <RO3>
N

>  <ACD_MOST_APKA>
12.54

>  <ACD_MOST_BPKA>


>  <ACD_LOGP>
-2.48

>  <ACD_LOGD>
-2.48

>  <AROMATIC_RINGS>
0

>  <HEAVY_ATOMS>
28

>  <QED_WEIGHTED>
.31

>  <HBA_LIPINSKI>
11

>  <HBD_LIPINSKI>
5

>  <NUM_LIPINSKI_RO5_VIOLATIONS>
1

>  <MW_MONOISOTOPIC>
406.1475

>  <MOLECULAR_SPECIES>
NEUTRAL

>  <FULL_MOLFORMULA>
C17H26O11

$$$$

  CDK    9/16/09,9:19

 21 23  0  0  0  0  0  0  0  0999 V2000
    8.7887    3.0342    0.0000 C   0  0  0  0  0  0  0  0  0  0  0  0
    9.5609    2.6834    0.0000 C   0  0  0  0  0  0  0  0  0  0  0  0
    9.7511    1.8647    0.0000 C   0  0  0  0  0  0  0  0  0  0  0  0
    9.2092    1.1769    0.0000 C   0  0  0  0  0  0  0  0  0  0  0  0
    8.4026    1.1797    0.0000 C   0  0  0  0  0  0  0  0  0  0  0  0
    8.1507    0.4135    0.0000 O   0  0  0  0  0  0  0  0  0  0  0  0
    8.8016   -0.0630    0.0000 C   0  0  0  0  0  0  0  0  0  0  0  0
    9.4557    0.4090    0.0000 C   0  0  0  0  0  0  0  0  0  0  0  0
    7.8827    1.8188    0.0000 C   0  0  0  0  0  0  0  0  0  0  0  0
    8.0231    2.6318    0.0000 C   0  0  0  0  0  0  0  0  0  0  0  0
    7.2934    3.0165    0.0000 C   0  0  0  0  0  0  0  0  0  0  0  0
    6.7019    2.4413    0.0000 C   0  0  0  0  0  0  0  0  0  0  0  0
    7.0662    1.7012    0.0000 C   0  0  0  0  0  0  0  0  0  0  0  0
    6.6736    0.9564    0.0000 C   0  0  0  0  0  0  0  0  0  0  0  0
    8.7645    3.8759    0.0000 C   0  0  0  0  0  0  0  0  0  0  0  0
   10.2557    0.1461    0.0000 C   0  0  0  0  0  0  0  0  0  0  0  0
    8.7988   -0.9050    0.0000 O   0  0  0  0  0  0  0  0  0  0  0  0
   10.0492    1.1780    0.0000 H   0  0  0  0  0  0  0  0  0  0  0  0
    8.8159    1.9137    0.0000 H   0  0  0  0  0  0  0  0  0  0  0  0
    7.6592    1.0079    0.0000 H   0  0  0  0  0  0  0  0  0  0  0  0
    8.0165    3.4745    0.0000 H   0  0  0  0  0  0  0  0  0  0  0  0
  4  5  1  0  0  0  0 
  1 10  1  0  0  0  0 
  1  2  1  0  0  0  0 
 10 11  1  0  0  0  0 
 11 12  1  0  0  0  0 
 12 13  1  0  0  0  0 
 13  9  1  0  0  0  0 
  3  4  1  0  0  0  0 
 13 14  2  0  0  0  0 
  5  9  1  0  0  0  0 
  1 15  2  0  0  0  0 
  5  6  1  0  0  0  0 
  8 16  2  0  0  0  0 
  6  7  1  0  0  0  0 
  7 17  2  0  0  0  0 
  7  8  1  0  0  0  0 
  4 18  1  6  0  0  0 
  8  4  1  0  0  0  0 
  5 19  1  1  0  0  0 
  9 10  1  0  0  0  0 
  9 20  1  6  0  0  0 
  2  3  1  0  0  0  0 
 10 21  1  6  0  0  0 
M  END
>  <MOLREGNO>
144418

>  <CHEMBLID>
CHEMBL88985

>  <SYNONYMS>
Dehydrocostuslactone | Dehydrocostus Lactone

>  <MAX_PHASE>
0

>  <MOLWEIGHT>
230.3

>  <ALOGP>
3.28

>  <PSA>
26.3

>  <HBA>
2

>  <HBD>
0

>  <RO5>
0

>  <RTB>
0

>  <RO3>
N

>  <ACD_MOST_APKA>


>  <ACD_MOST_BPKA>


>  <ACD_LOGP>
1.48

>  <ACD_LOGD>
1.48

>  <AROMATIC_RINGS>
0

>  <HEAVY_ATOMS>
17

>  <QED_WEIGHTED>
.36

>  <HBA_LIPINSKI>
2

>  <HBD_LIPINSKI>
0

>  <NUM_LIPINSKI_RO5_VIOLATIONS>
0

>  <MW_MONOISOTOPIC>
230.1307

>  <MOLECULAR_SPECIES>


>  <FULL_MOLFORMULA>
C15H18O2

$$$$

  SciTegic01161211222D

 14 16  0  0  0  0            999 V2000
   -5.1558   -6.6462    0.0000 C   0  0
   -5.6186   -7.3331    0.0000 C   0  0
   -5.1074   -7.9825    0.0000 O   0  0
   -4.3622   -6.8716    0.0000 C   0  0
   -4.3318   -7.6940    0.0000 C   0  0
   -3.6056   -8.0771    0.0000 C   0  0
   -3.6704   -6.4341    0.0000 C   0  0
   -2.9438   -6.8136    0.0000 C   0  0
   -2.9118   -7.6433    0.0000 C   0  0
   -2.1814   -8.0282    0.0000 O   0  0
   -1.4782   -7.5880    0.0000 C   0  0
   -1.5101   -6.7584    0.0000 C   0  0
   -2.2453   -6.3689    0.0000 C   0  0
   -0.7511   -7.9726    0.0000 O   0  0
  3  5  1  0
  8  7  2  0
  7  4  1  0
  8  9  1  0
  4  1  1  0
  2  3  1  0
  4  5  2  0
  1  2  2  0
  5  6  1  0
  8 13  1  0
  9 10  1  0
 10 11  1  0
 11 12  1  0
 12 13  2  0
  6  9  2  0
 11 14  2  0
M  END
>  <MOLREGNO>
278534

>  <CHEMBLID>
CHEMBL164660

>  <SYNONYMS>
Psoralen

>  <MAX_PHASE>
0

>  <MOLWEIGHT>
186.16

>  <ALOGP>
2.2

>  <PSA>
39.44

>  <HBA>
2

>  <HBD>
0

>  <RO5>
0

>  <RTB>
0

>  <RO3>
Y

>  <ACD_MOST_APKA>


>  <ACD_MOST_BPKA>


>  <ACD_LOGP>
2.04

>  <ACD_LOGD>
2.04

>  <AROMATIC_RINGS>
2

>  <HEAVY_ATOMS>
14

>  <QED_WEIGHTED>
.47

>  <HBA_LIPINSKI>
3

>  <HBD_LIPINSKI>
0

>  <NUM_LIPINSKI_RO5_VIOLATIONS>
0

>  <MW_MONOISOTOPIC>
186.0317

>  <MOLECULAR_SPECIES>


>  <FULL_MOLFORMULA>
C11H6O3

$$$$

  SciTegic01161211212D

 14 16  0  0  0  0            999 V2000
   14.4355   -7.2330    0.0000 C   0  0
   15.1485   -6.8195    0.0000 C   0  0
   15.8651   -7.2294    0.0000 C   0  0
   15.8659   -8.0576    0.0000 C   0  0
   16.5824   -8.4693    0.0000 O   0  0
   17.2987   -8.0538    0.0000 C   0  0
   17.2938   -7.2224    0.0000 C   0  0
   16.5767   -6.8145    0.0000 C   0  0
   14.9770   -9.2802    0.0000 C   0  0
   15.1503   -8.4753    0.0000 C   0  0
   14.4373   -8.0624    0.0000 C   0  0
   13.8251   -8.6143    0.0000 O   0  0
   14.1619   -9.3663    0.0000 C   0  0
   18.0160   -8.4642    0.0000 O   0  0
  2  1  1  0
  6  7  1  0
  1 11  2  0
  7  8  2  0
  8  3  1  0
 10 11  1  0
 10  4  2  0
  3  4  1  0
  4  5  1  0
  3  2  2  0
  9 10  1  0
 11 12  1  0
 12 13  1  0
 13  9  2  0
  5  6  1  0
  6 14  2  0
M  END
>  <MOLREGNO>
81551

>  <CHEMBLID>
CHEMBL53569

>  <SYNONYMS>
Angelicin

>  <MAX_PHASE>
0

>  <MOLWEIGHT>
186.16

>  <ALOGP>
2.2

>  <PSA>
39.44

>  <HBA>
2

>  <HBD>
0

>  <RO5>
0

>  <RTB>
0

>  <RO3>
Y

>  <ACD_MOST_APKA>


>  <ACD_MOST_BPKA>


>  <ACD_LOGP>
1.97

>  <ACD_LOGD>
1.97

>  <AROMATIC_RINGS>
2

>  <HEAVY_ATOMS>
14

>  <QED_WEIGHTED>
.47

>  <HBA_LIPINSKI>
3

>  <HBD_LIPINSKI>
0

>  <NUM_LIPINSKI_RO5_VIOLATIONS>
0

>  <MW_MONOISOTOPIC>
186.0317

>  <MOLECULAR_SPECIES>


>  <FULL_MOLFORMULA>
C11H6O3

$$$$

  CDK    9/16/09,9:19

 19 19  0  0  0  0  0  0  0  0999 V2000
    1.5201   -0.5545    0.0000 C   0  0  0  0  0  0  0  0  0  0  0  0
    1.5188   -1.3821    0.0000 C   0  0  0  0  0  0  0  0  0  0  0  0
    2.2318   -1.7951    0.0000 C   0  0  0  0  0  0  0  0  0  0  0  0
    2.9510   -1.3816    0.0000 C   0  0  0  0  0  0  0  0  0  0  0  0
    2.9480   -0.5505    0.0000 C   0  0  0  0  0  0  0  0  0  0  0  0
    2.2298   -0.1418    0.0000 C   0  0  0  0  0  0  0  0  0  0  0  0
    0.8038   -1.7936    0.0000 O   0  0  0  0  0  0  0  0  0  0  0  0
    3.6603   -0.1345    0.0000 C   0  0  0  0  0  0  0  0  0  0  0  0
    3.6562    0.6905    0.0000 C   0  0  0  0  0  0  0  0  0  0  0  0
    4.3687    1.1065    0.0000 C   0  0  0  0  0  0  0  0  0  0  0  0
    5.0783    1.5262    0.0000 C   0  0  0  0  0  0  0  0  0  0  0  0
    4.7867    0.3952    0.0000 C   0  0  0  0  0  0  0  0  0  0  0  0
    3.9512    1.8181    0.0000 C   0  0  0  0  0  0  0  0  0  0  0  0
    3.1262    1.8122    0.0000 C   0  0  0  0  0  0  0  0  0  0  0  0
    5.7970    1.1213    0.0000 C   0  0  0  0  0  0  0  0  0  0  0  0
    6.5071    1.5413    0.0000 C   0  0  0  0  0  0  0  0  0  0  0  0
    7.2259    1.1364    0.0000 C   0  0  0  0  0  0  0  0  0  0  0  0
    7.9360    1.5564    0.0000 C   0  0  0  0  0  0  0  0  0  0  0  0
    7.2346    0.3114    0.0000 C   0  0  0  0  0  0  0  0  0  0  0  0
  4  5  1  0  0  0  0 
  9 10  1  0  0  0  0 
  2  3  1  0  0  0  0 
 10 11  1  0  0  0  0 
  5  6  2  0  0  0  0 
 10 12  1  1  0  0  0 
  6  1  1  0  0  0  0 
 10 13  1  0  0  0  0 
  1  2  2  0  0  0  0 
 13 14  2  0  0  0  0 
  2  7  1  0  0  0  0 
 11 15  1  0  0  0  0 
  3  4  2  0  0  0  0 
 15 16  1  0  0  0  0 
  5  8  1  0  0  0  0 
 16 17  2  0  0  0  0 
 17 18  1  0  0  0  0 
  8  9  2  0  0  0  0 
 17 19  1  0  0  0  0 
M  END
>  <MOLREGNO>
429074

>  <CHEMBLID>
CHEMBL262344

>  <SYNONYMS>
Bakuchiol | (S)-Bakuchiol

>  <MAX_PHASE>
0

>  <MOLWEIGHT>
256.38

>  <ALOGP>
5.35

>  <PSA>
20.23

>  <HBA>
1

>  <HBD>
1

>  <RO5>
1

>  <RTB>
6

>  <RO3>
N

>  <ACD_MOST_APKA>
10.1

>  <ACD_MOST_BPKA>


>  <ACD_LOGP>
6.55

>  <ACD_LOGD>
6.55

>  <AROMATIC_RINGS>
1

>  <HEAVY_ATOMS>
19

>  <QED_WEIGHTED>
.68

>  <HBA_LIPINSKI>
1

>  <HBD_LIPINSKI>
1

>  <NUM_LIPINSKI_RO5_VIOLATIONS>
1

>  <MW_MONOISOTOPIC>
256.1827

>  <MOLECULAR_SPECIES>
NEUTRAL

>  <FULL_MOLFORMULA>
C18H24O

$$$$

  Mrv0541 05281412222D          

 30 33  0  0  0  0            999 V2000
   12.1889   -4.8468    0.0000 C   0  0  0  0  0  0  0  0  0  0  0  0
   11.4772   -4.4343    0.0000 C   0  0  0  0  0  0  0  0  0  0  0  0
   10.7613   -4.8468    0.0000 C   0  0  0  0  0  0  0  0  0  0  0  0
   10.0455   -4.4343    0.0000 C   0  0  0  0  0  0  0  0  0  0  0  0
   10.0455   -3.6093    0.0000 C   0  0  0  0  0  0  0  0  0  0  0  0
   10.7613   -3.1968    0.0000 C   0  0  0  0  0  0  0  0  0  0  0  0
   11.4772   -3.6093    0.0000 C   0  0  0  0  0  0  0  0  0  0  0  0
   12.1889   -3.1968    0.0000 O   0  0  0  0  0  0  0  0  0  0  0  0
   12.9047   -3.6093    0.0000 C   0  0  0  0  0  0  0  0  0  0  0  0
   13.6206   -3.1968    0.0000 C   0  0  0  0  0  0  0  0  0  0  0  0
   14.3323   -3.6093    0.0000 C   0  0  0  0  0  0  0  0  0  0  0  0
   14.3323   -4.4343    0.0000 C   0  0  0  0  0  0  0  0  0  0  0  0
   13.6206   -4.8468    0.0000 C   0  0  0  0  0  0  0  0  0  0  0  0
   12.9047   -4.4343    0.0000 C   0  0  0  0  0  0  0  0  0  0  0  0
   12.1889   -5.6718    0.0000 O   0  0  0  0  0  0  0  0  0  0  0  0
    8.6180   -4.4343    0.0000 O   0  0  0  0  0  0  0  0  0  0  0  0
    9.3296   -4.8468    0.0000 C   0  0  2  0  0  0  0  0  0  0  0  0
    9.3296   -5.6718    0.0000 C   0  0  1  0  0  0  0  0  0  0  0  0
    8.6180   -6.0843    0.0000 C   0  0  2  0  0  0  0  0  0  0  0  0
    7.9021   -5.6718    0.0000 C   0  0  1  0  0  0  0  0  0  0  0  0
    7.9021   -4.8468    0.0000 C   0  0  1  0  0  0  0  0  0  0  0  0
    7.1904   -4.4343    0.0000 C   0  0  0  0  0  0  0  0  0  0  0  0
    6.4745   -4.8468    0.0000 O   0  0  0  0  0  0  0  0  0  0  0  0
    7.1904   -6.0843    0.0000 O   0  0  0  0  0  0  0  0  0  0  0  0
    8.6180   -6.9093    0.0000 O   0  0  0  0  0  0  0  0  0  0  0  0
   10.0455   -6.0843    0.0000 O   0  0  0  0  0  0  0  0  0  0  0  0
   15.0482   -4.8468    0.0000 O   0  0  0  0  0  0  0  0  0  0  0  0
   15.0482   -3.1968    0.0000 O   0  0  0  0  0  0  0  0  0  0  0  0
    9.3296   -3.1968    0.0000 O   0  0  0  0  0  0  0  0  0  0  0  0
   10.7613   -5.6718    0.0000 O   0  0  0  0  0  0  0  0  0  0  0  0
  1  2  1  0  0  0  0
  2  3  1  0  0  0  0
  3  4  2  0  0  0  0
  4  5  1  0  0  0  0
  5  6  2  0  0  0  0
  6  7  1  0  0  0  0
  2  7  2  0  0  0  0
  7  8  1  0  0  0  0
  8  9  1  0  0  0  0
  9 10  1  0  0  0  0
 10 11  2  0  0  0  0
 11 12  1  0  0  0  0
 12 13  2  0  0  0  0
 13 14  1  0  0  0  0
  9 14  2  0  0  0  0
  1 14  1  0  0  0  0
  1 15  2  0  0  0  0
 16 17  1  0  0  0  0
 17 18  1  0  0  0  0
 18 19  1  0  0  0  0
 19 20  1  0  0  0  0
 20 21  1  0  0  0  0
 16 21  1  0  0  0  0
 22 23  1  0  0  0  0
 21 22  1  1  0  0  0
 20 24  1  6  0  0  0
 19 25  1  1  0  0  0
 18 26  1  6  0  0  0
 17  4  1  1  0  0  0
 12 27  1  0  0  0  0
 11 28  1  0  0  0  0
  5 29  1  0  0  0  0
  3 30  1  0  0  0  0
M  END
>  <MOLREGNO>
458337

>  <CHEMBLID>
CHEMBL464825

>  <SYNONYMS>
Mangiferin

>  <MAX_PHASE>
0

>  <MOLWEIGHT>
422.34

>  <ALOGP>
-.4

>  <PSA>
197.36

>  <HBA>
11

>  <HBD>
8

>  <RO5>
2

>  <RTB>
2

>  <RO3>
N

>  <ACD_MOST_APKA>
13.04

>  <ACD_MOST_BPKA>
3.19

>  <ACD_LOGP>
1.47

>  <ACD_LOGD>
1.47

>  <AROMATIC_RINGS>
2

>  <HEAVY_ATOMS>
30

>  <QED_WEIGHTED>
.29

>  <HBA_LIPINSKI>
11

>  <HBD_LIPINSKI>
8

>  <NUM_LIPINSKI_RO5_VIOLATIONS>
2

>  <MW_MONOISOTOPIC>
422.0849

>  <MOLECULAR_SPECIES>
NEUTRAL

>  <FULL_MOLFORMULA>
C19H18O11

$$$$

  SciTegic04151115542D

 92101  0  0  0  0            999 V2000
    5.0107   -2.7053    0.0000 C   0  0  2  0  0  0
    3.5757   -3.5493    0.0000 C   0  0  2  0  0  0
    1.4339   -3.9432    0.0000 C   0  0  1  0  0  0
    3.5757   -2.7053    0.0000 C   0  0
    2.8690   -3.9432    0.0000 C   0  0  1  0  0  0
    0.7270   -5.1813    0.0000 C   0  0
    5.7175   -3.1166    0.0000 C   0  0
    7.8595   -2.7053    0.0000 C   0  0  2  0  0  0
    4.3038   -2.2940    0.0000 C   0  0  2  0  0  0
    8.5703   -1.4460    0.0000 C   0  0  2  0  0  0
   -1.4098   -4.7700    0.0000 C   0  0  1  0  0  0
    1.4339   -4.7700    0.0000 C   0  0  2  0  0  0
    2.1621   -3.5319    0.0000 C   0  0  2  0  0  0
   10.0012   -0.6234    0.0000 C   0  0  1  0  0  0
    8.5703   -0.6234    0.0000 C   0  0  1  0  0  0
   -2.1161   -5.1813    0.0000 C   0  0  1  0  0  0
   12.8540   -0.6234    0.0000 C   0  0  1  0  0  0
   12.1429   -0.2293    0.0000 C   0  0  2  0  0  0
    0.0233   -4.7700    0.0000 C   0  0  1  0  0  0
    9.2772   -0.2080    0.0000 C   0  0  2  0  0  0
    7.1354   -3.0995    0.0000 C   0  0  2  0  0  0
   -2.8430   -4.7700    0.0000 C   0  0  2  0  0  0
   11.4363   -0.6234    0.0000 C   0  0  2  0  0  0
   14.2849   -0.6234    0.0000 C   0  0  2  0  0  0
    7.8595   -1.8614    0.0000 O   0  0
   -1.4098   -3.9432    0.0000 O   0  0
    5.0107   -3.5319    0.0000 C   0  0  1  0  0  0
   15.0902   -0.4050    0.0000 C   0  0  1  0  0  0
    9.2772   -1.8614    0.0000 O   0  0
    6.4244   -2.7053    0.0000 O   0  0
   15.5443   -1.0561    0.0000 C   0  0  2  0  0  0
   -0.7078   -5.1813    0.0000 O   0  0
   10.7081   -0.2293    0.0000 O   0  0
   13.5781   -0.2293    0.0000 O   0  0
   -2.8430   -3.9432    0.0000 C   0  0  1  0  0  0
    4.3038   -3.9647    0.0000 C   0  0
    8.5703   -3.0995    0.0000 C   0  0  2  0  0  0
    2.8690   -2.2940    0.0000 C   0  0
    0.7270   -3.5319    0.0000 C   0  0
   -2.1161   -3.5319    0.0000 C   0  0  1  0  0  0
   10.0012   -1.4674    0.0000 C   0  0  1  0  0  0
   14.2849   -1.4674    0.0000 O   0  0
    7.1354   -3.9432    0.0000 O   0  0
    0.0233   -3.9432    0.0000 C   0  0  2  0  0  0
   11.4363   -1.4674    0.0000 O   0  0
    2.8690   -4.7700    0.0000 C   0  0
    2.1621   -2.7053    0.0000 C   0  0
    5.7175   -2.2940    0.0000 C   0  0
    2.1621   -5.1813    0.0000 C   0  0
   12.8540   -1.4674    0.0000 C   0  0  1  0  0  0
    8.5703   -3.9432    0.0000 C   0  0  2  0  0  0
    4.3038   -1.4674    0.0000 C   0  0
   15.0902   -1.7244    0.0000 C   0  0
    5.7175   -3.9432    0.0000 O   0  0
   12.1429   -1.8786    0.0000 C   0  0
    7.8595   -4.3545    0.0000 C   0  0
    5.0107   -1.0561    0.0000 C   0  0
    0.3807   -5.9307    0.0000 C   0  0
    1.0012   -5.9652    0.0000 C   0  0
    5.7175   -1.4674    0.0000 C   0  0
    3.5757   -4.3545    0.0000 C   0  0
    1.4339   -3.1166    0.0000 C   0  0
    2.8690   -3.1166    0.0000 C   0  0
   16.2761   -1.4763    0.0000 C   0  0
   -2.1161   -2.7053    0.0000 C   0  0
    5.3448   -0.2893    0.0000 C   0  0
    4.6766   -0.2893    0.0000 C   0  0
    2.1621   -4.3373    0.0000 H   0  0
    4.2827   -3.1166    0.0000 H   0  0
    1.4339   -5.5754    0.0000 H   0  0
    0.3749   -6.7496    0.0000 O   0  0
    0.9939   -6.7870    0.0000 O   0  0
   -1.4156   -5.5906    0.0000 H   0  0
    7.8526   -1.0334    0.0000 H   0  0
    9.9962    0.2004    0.0000 H   0  0
   12.8461    0.2004    0.0000 H   0  0
   16.9875   -1.0635    0.0000 O   0  0
   -2.1161   -6.0079    0.0000 O   0  0
    7.8595   -0.2080    0.0000 O   0  0
   12.1429    0.5973    0.0000 O   0  0
    9.2772    0.6144    0.0000 O   0  0
   -3.5556   -5.2026    0.0000 O   0  0
   16.2897   -0.7391    0.0000 O   0  0
   15.3858    0.3618    0.0000 O   0  0
   -3.5556   -3.5319    0.0000 O   0  0
    9.2772   -2.7053    0.0000 O   0  0
   -0.7078   -3.5319    0.0000 O   0  0
   13.5781   -1.8786    0.0000 O   0  0
    9.2944   -4.3373    0.0000 O   0  0
   -1.4306   -2.2940    0.0000 O   0  0
    5.4048   -4.2602    0.0000 O   0  0
   10.7143   -1.8822    0.0000 C   0  0
 59  6  1  0
 30  7  1  0
 54  7  2  0
  8 21  1  0
  8 25  1  6
 37  8  1  0
 52  9  1  0
  9 69  1  1
 10 25  1  0
 15 10  1  0
 29 10  1  0
 11 32  1  0
 16 11  1  0
 26 11  1  0
 12 49  1  0
 12 70  1  6
 13 68  1  6
 47 13  1  0
 14 41  1  0
 14 33  1  0
 14 20  1  0
 20 15  1  0
 15 79  1  6
 22 16  1  0
 16 78  1  6
 17 18  1  0
 17 34  1  0
 50 17  1  0
 18 23  1  0
 18 80  1  6
 19 32  1  1
 19 44  1  0
 20 81  1  6
 21 30  1  1
 43 21  1  0
 22 82  1  1
 35 22  1  0
 23 33  1  1
 45 23  1  0
 24 34  1  1
 28 24  1  0
 42 24  1  0
 40 26  1  0
 36 27  1  0
 27 91  1  6
 31 28  1  0
 28 84  1  6
 41 29  1  0
 31 83  1  6
 64 31  1  0
 53 31  1  0
 35 40  1  0
 35 85  1  6
 37 86  1  1
 51 37  1  0
 47 38  1  0
 44 39  1  0
 40 65  1  1
 41 92  1  6
 53 42  1  0
 56 43  1  0
 44 87  1  1
 55 45  1  0
 49 46  1  0
 60 48  1  0
 50 55  1  0
 50 88  1  6
 51 56  1  0
 51 89  1  1
 52 57  1  0
 57 60  1  0
 66 57  1  0
 67 57  1  0
 90 65  1  0
 58 71  1  0
  1  7  1  1
 59 72  1  0
  9  1  1  0
 11 73  1  6
 27  1  1  0
 10 74  1  6
 48  1  1  0
 14 75  1  6
  2 36  1  0
 17 76  1  6
  5  2  1  0
 64 77  1  0
  2 61  1  6
  2  4  1  0
  3 13  1  0
 39  3  1  0
  3 62  1  1
 12  3  1  0
  4  9  1  0
 38  4  2  0
 13  5  1  0
 46  5  1  0
  5 63  1  1
  6 12  1  0
 19  6  1  0
 58  6  1  0
M  END
>  <MOLREGNO>
1056177

>  <CHEMBLID>
CHEMBL1641859

>  <SYNONYMS>
Platycodin D

>  <MAX_PHASE>
0

>  <MOLWEIGHT>
1225.32

>  <ALOGP>


>  <PSA>


>  <HBA>


>  <HBD>


>  <RO5>


>  <RTB>


>  <RO3>


>  <ACD_MOST_APKA>


>  <ACD_MOST_BPKA>


>  <ACD_LOGP>


>  <ACD_LOGD>


>  <AROMATIC_RINGS>


>  <HEAVY_ATOMS>


>  <QED_WEIGHTED>


>  <HBA_LIPINSKI>


>  <HBD_LIPINSKI>


>  <NUM_LIPINSKI_RO5_VIOLATIONS>


>  <MW_MONOISOTOPIC>
1224.5775

>  <MOLECULAR_SPECIES>


>  <FULL_MOLFORMULA>
C57H92O28

$$$$

  SciTegic04191615122D

 31 33  0  0  0  0            999 V2000
   -3.4277    0.0000    0.0000 C   0  0
   -3.4277   -1.5498    0.0000 C   0  0
   -2.1332   -2.2973    0.0000 C   0  0
   -2.1332    0.6928    0.0000 O   0  0
   -0.8205    0.0000    0.0000 C   0  0
   -0.8205   -1.5498    0.0000 C   0  0
    0.4558   -2.2973    0.0000 C   0  0
    1.7503   -1.5498    0.0000 C   0  0
   -4.4571    0.6166    0.0000 O   0  0
    0.4558    0.6928    0.0000 C   0  0
    1.7503    0.0000    0.0000 C   0  0
    3.0631    0.6928    0.0000 O   0  0
    3.0631    2.1879    0.0000 C   0  0
    1.7503    2.9537    0.0000 C   0  0
    0.4558    2.1879    0.0000 C   0  0
    1.7385    4.4541    0.0000 O   0  0
    3.0319    5.2155    0.0000 C   0  0
    3.0201    6.7163    0.0000 C   0  0
    4.0759    4.6240    0.0000 O   0  0
    4.3135    7.4776    0.0000 C   0  0
    1.9761    7.3078    0.0000 C   0  0
    4.3041    8.6776    0.0000 C   0  0
    3.0372    3.3876    0.0000 C   0  0
    4.0864    1.5612    0.0000 C   0  0
   -0.8477    2.9320    0.0000 O   0  0
   -0.8560    4.4328    0.0000 C   0  0
   -2.1595    5.1769    0.0000 C   0  0
    0.1800    5.0383    0.0000 O   0  0
   -3.1955    4.5714    0.0000 C   0  0
   -2.1678    6.6777    0.0000 C   0  0
   -3.2099    7.2726    0.0000 C   0  0
  1  2  1  0
  1  4  1  0
  2  3  2  0
  3  6  1  0
  5  4  1  0
  5  6  2  0
  6  7  1  0
  7  8  2  0
  8 11  1  0
 10  5  1  0
  1  9  2  0
 10 11  2  0
 10 15  1  0
 11 12  1  0
 12 13  1  0
 13 14  1  0
 14 15  1  0
 14 16  1  0
 16 17  1  0
 17 18  1  0
 17 19  2  0
 18 20  2  0
 18 21  1  0
 20 22  1  0
 13 23  1  0
 13 24  1  0
 15 25  1  0
 25 26  1  0
 26 27  1  0
 26 28  2  0
 27 29  1  0
 27 30  2  0
 30 31  1  0
M  END
>  <MOLREGNO>
1953523

>  <CHEMBLID>
CHEMBL3596578

>  <SYNONYMS>


>  <MAX_PHASE>
0

>  <MOLWEIGHT>
426.46

>  <ALOGP>
5.05

>  <PSA>
88.13

>  <HBA>
7

>  <HBD>
0

>  <RO5>
1

>  <RTB>
6

>  <RO3>
N

>  <ACD_MOST_APKA>


>  <ACD_MOST_BPKA>


>  <ACD_LOGP>
4.84

>  <ACD_LOGD>
4.84

>  <AROMATIC_RINGS>
1

>  <HEAVY_ATOMS>
31

>  <QED_WEIGHTED>
.36

>  <HBA_LIPINSKI>
7

>  <HBD_LIPINSKI>
0

>  <NUM_LIPINSKI_RO5_VIOLATIONS>
1

>  <MW_MONOISOTOPIC>
426.1679

>  <MOLECULAR_SPECIES>


>  <FULL_MOLFORMULA>
C24H26O7

$$$$

  CDK    6/4/10,11:42

 22 25  0  0  0  0  0  0  0  0999 V2000
    1.9139   -3.5800    0.0000 C   0  0  0  0  0  0  0  0  0  0  0  0
    1.9163   -4.3968    0.0000 C   0  0  0  0  0  0  0  0  0  0  0  0
    2.6182   -4.8094    0.0000 C   0  0  0  0  0  0  0  0  0  0  0  0
    2.6196   -3.1741    0.0000 C   0  0  0  0  0  0  0  0  0  0  0  0
    3.3264   -3.5746    0.0000 C   0  0  0  0  0  0  0  0  0  0  0  0
    3.3273   -4.4000    0.0000 C   0  0  0  0  0  0  0  0  0  0  0  0
    4.7491   -3.5699    0.0000 C   0  0  0  0  0  0  0  0  0  0  0  0
    4.0339   -3.1593    0.0000 O   0  0  0  0  0  0  0  0  0  0  0  0
    4.7501   -4.3954    0.0000 C   0  0  0  0  0  0  0  0  0  0  0  0
    4.0368   -4.8100    0.0000 C   0  0  0  0  0  0  0  0  0  0  0  0
    5.3695   -4.9471    0.0000 C   0  0  0  0  0  0  0  0  0  0  0  0
    5.4535   -3.9794    0.0000 O   0  0  0  0  0  0  0  0  0  0  0  0
    5.0304   -5.6994    0.0000 C   0  0  0  0  0  0  0  0  0  0  0  0
    4.2069   -5.6154    0.0000 C   0  0  0  0  0  0  0  0  0  0  0  0
    3.7255   -6.2801    0.0000 C   0  0  0  0  0  0  0  0  0  0  0  0
    4.0578   -7.0387    0.0000 C   0  0  0  0  0  0  0  0  0  0  0  0
    4.8813   -7.1227    0.0000 C   0  0  0  0  0  0  0  0  0  0  0  0
    5.3724   -6.4519    0.0000 C   0  0  0  0  0  0  0  0  0  0  0  0
    5.2153   -7.8661    0.0000 O   0  0  0  0  0  0  0  0  0  0  0  0
    3.5809   -7.6986    0.0000 O   0  0  0  0  0  0  0  0  0  0  0  0
    1.2083   -3.1747    0.0000 O   0  0  0  0  0  0  0  0  0  0  0  0
    3.3241   -5.2206    0.0000 H   0  0  0  0  0  0  0  0  0  0  0  0
  4  1  1  0  0  0  0 
  5  6  1  0  0  0  0 
 10 14  1  0  0  0  0 
 13 11  1  0  0  0  0 
 11  9  1  0  0  0  0 
  9 12  1  1  0  0  0 
 13 14  2  0  0  0  0 
  2  3  1  0  0  0  0 
  3  6  2  0  0  0  0 
  1  2  2  0  0  0  0 
  5  8  1  0  0  0  0 
  6 10  1  0  0  0  0 
  9  7  1  0  0  0  0 
 13 18  1  0  0  0  0 
 14 15  1  0  0  0  0 
 15 16  2  0  0  0  0 
 16 17  1  0  0  0  0 
 17 18  2  0  0  0  0 
  7  8  1  0  0  0  0 
 17 19  1  0  0  0  0 
  9 10  1  0  0  0  0 
 16 20  1  0  0  0  0 
  5  4  2  0  0  0  0 
  1 21  1  0  0  0  0 
 10 22  1  1  0  0  0 
M  END
>  <MOLREGNO>
600119

>  <CHEMBLID>
CHEMBL598951

>  <SYNONYMS>
Brazilin

>  <MAX_PHASE>
0

>  <MOLWEIGHT>
286.28

>  <ALOGP>
1.93

>  <PSA>
90.15

>  <HBA>
5

>  <HBD>
4

>  <RO5>
0

>  <RTB>
0

>  <RO3>
N

>  <ACD_MOST_APKA>
9.87

>  <ACD_MOST_BPKA>


>  <ACD_LOGP>
1.08

>  <ACD_LOGD>
1.07

>  <AROMATIC_RINGS>
2

>  <HEAVY_ATOMS>
21

>  <QED_WEIGHTED>
.56

>  <HBA_LIPINSKI>
5

>  <HBD_LIPINSKI>
4

>  <NUM_LIPINSKI_RO5_VIOLATIONS>
0

>  <MW_MONOISOTOPIC>
286.0841

>  <MOLECULAR_SPECIES>
NEUTRAL

>  <FULL_MOLFORMULA>
C16H14O5

$$$$

  CDK    8/10/10,12:22

 27 29  0  0  0  0  0  0  0  0999 V2000
    6.6856    1.0624    0.0000 C   0  0  0  0  0  0  0  0  0  0  0  0
    6.6844    0.2352    0.0000 C   0  0  0  0  0  0  0  0  0  0  0  0
    7.3991   -0.1777    0.0000 C   0  0  0  0  0  0  0  0  0  0  0  0
    7.3973    1.4752    0.0000 C   0  0  0  0  0  0  0  0  0  0  0  0
    8.1127    1.0661    0.0000 C   0  0  0  0  0  0  0  0  0  0  0  0
    8.1115    0.2331    0.0000 C   0  0  0  0  0  0  0  0  0  0  0  0
    8.8283   -0.1822    0.0000 C   0  0  0  0  0  0  0  0  0  0  0  0
    9.5510    0.2310    0.0000 C   0  0  0  0  0  0  0  0  0  0  0  0
    9.5522    1.0640    0.0000 C   0  0  0  0  0  0  0  0  0  0  0  0
    8.8307    1.4839    0.0000 O   0  0  0  0  0  0  0  0  0  0  0  0
   10.2642   -0.1835    0.0000 O   0  0  0  0  0  0  0  0  0  0  0  0
   10.2618   -1.0084    0.0000 C   0  0  0  0  0  0  0  0  0  0  0  0
    8.8260   -1.0071    0.0000 O   0  0  0  0  0  0  0  0  0  0  0  0
   10.2675    1.4748    0.0000 C   0  0  0  0  0  0  0  0  0  0  0  0
   10.9796    1.0562    0.0000 C   0  0  0  0  0  0  0  0  0  0  0  0
   11.6945    1.4662    0.0000 C   0  0  0  0  0  0  0  0  0  0  0  0
   11.6969    2.2920    0.0000 C   0  0  0  0  0  0  0  0  0  0  0  0
   10.9785    2.7061    0.0000 C   0  0  0  0  0  0  0  0  0  0  0  0
   10.2665    2.2937    0.0000 C   0  0  0  0  0  0  0  0  0  0  0  0
   12.4077    1.0517    0.0000 O   0  0  0  0  0  0  0  0  0  0  0  0
   12.4119    2.7037    0.0000 O   0  0  0  0  0  0  0  0  0  0  0  0
   13.1258    2.2904    0.0000 C   0  0  0  0  0  0  0  0  0  0  0  0
    7.3988   -1.0026    0.0000 O   0  0  0  0  0  0  0  0  0  0  0  0
    5.9697   -0.1768    0.0000 O   0  0  0  0  0  0  0  0  0  0  0  0
    5.2556    0.2363    0.0000 C   0  0  0  0  0  0  0  0  0  0  0  0
    5.9711    1.4748    0.0000 O   0  0  0  0  0  0  0  0  0  0  0  0
    5.9709    2.2997    0.0000 C   0  0  0  0  0  0  0  0  0  0  0  0
  7 13  2  0  0  0  0 
  3  6  2  0  0  0  0 
  9 14  1  0  0  0  0 
  1  2  2  0  0  0  0 
 14 15  2  0  0  0  0 
  5  4  2  0  0  0  0 
 15 16  1  0  0  0  0 
  4  1  1  0  0  0  0 
 16 17  2  0  0  0  0 
  5 10  1  0  0  0  0 
 17 18  1  0  0  0  0 
  6  7  1  0  0  0  0 
 18 19  2  0  0  0  0 
 19 14  1  0  0  0  0 
  7  8  1  0  0  0  0 
 16 20  1  0  0  0  0 
  8  9  2  0  0  0  0 
 17 21  1  0  0  0  0 
  9 10  1  0  0  0  0 
 21 22  1  0  0  0  0 
  5  6  1  0  0  0  0 
  3 23  1  0  0  0  0 
  8 11  1  0  0  0  0 
  2 24  1  0  0  0  0 
 24 25  1  0  0  0  0 
 11 12  1  0  0  0  0 
  1 26  1  0  0  0  0 
  2  3  1  0  0  0  0 
 26 27  1  0  0  0  0 
M  END
>  <MOLREGNO>
445264

>  <CHEMBLID>
CHEMBL452767

>  <SYNONYMS>
Casticin | Vitexicarpin

>  <MAX_PHASE>
0

>  <MOLWEIGHT>
374.34

>  <ALOGP>
2.29

>  <PSA>
103.68

>  <HBA>
8

>  <HBD>
2

>  <RO5>
0

>  <RTB>
5

>  <RO3>
N

>  <ACD_MOST_APKA>
6.13

>  <ACD_MOST_BPKA>


>  <ACD_LOGP>
2.22

>  <ACD_LOGD>
.92

>  <AROMATIC_RINGS>
2

>  <HEAVY_ATOMS>
27

>  <QED_WEIGHTED>
.82

>  <HBA_LIPINSKI>
8

>  <HBD_LIPINSKI>
2

>  <NUM_LIPINSKI_RO5_VIOLATIONS>
0

>  <MW_MONOISOTOPIC>
374.1002

>  <MOLECULAR_SPECIES>
ACID

>  <FULL_MOLFORMULA>
C19H18O8

$$$$

  SciTegic01161211252D

 21 24  0  0  0  0            999 V2000
    2.4165    1.0699    0.0000 C   0  0
    2.4165    0.2481    0.0000 C   0  0
    3.1289    1.4871    0.0000 C   0  0
    3.8413    1.0699    0.0000 C   0  0
    4.5506    1.4856    0.0000 C   0  0
    5.2684    1.0727    0.0000 C   0  0
    5.2669    0.2451    0.0000 C   0  0
    6.0530   -0.0127    0.0000 C   0  0
    6.5413    0.6565    0.0000 C   0  0
    6.0555    1.3274    0.0000 O   0  0
    6.3060   -0.7943    0.0000 C   0  0
    3.2964   -0.9644    0.0000 C   0  0
    4.1150   -1.0539    0.0000 O   0  0
    4.5506   -0.1642    0.0000 C   0  0  2  0  0  0
    3.1263    0.6676    0.0000 C   0  0
    3.8476    0.2534    0.0000 C   0  0  1  0  0  0
    3.1282   -0.1609    0.0000 C   0  0  1  0  0  0
    3.8447   -0.5729    0.0000 O   0  0
    2.7449   -1.5775    0.0000 O   0  0
    4.5473    0.6654    0.0000 H   0  0
    4.2586    0.9653    0.0000 H   0  0
  1  2  1  0
  1  3  1  0
  2 17  1  0
  4  3  2  0
  4  5  1  0
 14  7  1  0
  6  5  1  0
  6  7  2  0
  7  8  1  0
  8  9  2  0
  9 10  1  0
 10  6  1  0
  8 11  1  0
  4 15  1  0
 17 12  1  0
 12 13  1  0
 13 14  1  0
 14 16  1  0
 17 16  1  0
 17 18  1  1
 16 18  1  0
 12 19  2  0
 14 20  1  1
 16 21  1  1
M  END
>  <MOLREGNO>
618797

>  <CHEMBLID>
CHEMBL1079723

>  <SYNONYMS>
Linderane

>  <MAX_PHASE>
0

>  <MOLWEIGHT>
260.29

>  <ALOGP>
2.5

>  <PSA>
51.97

>  <HBA>
3

>  <HBD>
0

>  <RO5>
0

>  <RTB>
0

>  <RO3>
Y

>  <ACD_MOST_APKA>


>  <ACD_MOST_BPKA>


>  <ACD_LOGP>
1.67

>  <ACD_LOGD>
1.67

>  <AROMATIC_RINGS>
1

>  <HEAVY_ATOMS>
19

>  <QED_WEIGHTED>
.53

>  <HBA_LIPINSKI>
4

>  <HBD_LIPINSKI>
0

>  <NUM_LIPINSKI_RO5_VIOLATIONS>
0

>  <MW_MONOISOTOPIC>
260.1049

>  <MOLECULAR_SPECIES>


>  <FULL_MOLFORMULA>
C15H16O4

$$$$

  SciTegic02291217272D

 20 22  0  0  0  0            999 V2000
   -0.6332    1.0091    0.0000 C   0  0  2  0  0  0
    0.0809    1.4288    0.0000 C   0  0
    0.7952    1.0091    0.0000 C   0  0
    0.7951    0.1858    0.0000 C   0  0
    1.5783   -0.0674    0.0000 C   0  0
    2.0640    0.5994    0.0000 C   0  0
    1.5784    1.2663    0.0000 O   0  0
    0.0809   -0.2249    0.0000 C   0  0  1  0  0  0
   -0.6332    0.1822    0.0000 C   0  0  2  0  0  0
   -1.2400   -0.3671    0.0000 C   0  0
   -0.9050   -1.1182    0.0000 C   0  0
   -0.0870   -1.0302    0.0000 O   0  0
    1.8325   -0.8541    0.0000 C   0  0
   -0.6374    1.8360    0.0000 C   0  0
   -1.3480    1.4246    0.0000 C   0  0
   -2.0640    1.0082    0.0000 C   0  0
   -2.0493   -0.1983    0.0000 C   0  0
   -1.3142   -1.8360    0.0000 O   0  0
    0.7467   -0.7076    0.0000 H   0  0
   -1.3837    0.5150    0.0000 H   0  0
  1  9  1  0
  1  2  1  0
  8  4  1  0
  3  2  1  0
  3  4  2  0
  4  5  1  0
  5  6  2  0
  6  7  1  0
  7  3  1  0
  8  9  1  0
  9 10  1  0
 10 11  1  0
 11 12  1  0
  8 12  1  0
  5 13  1  0
  1 14  1  6
  1 15  1  0
 15 16  2  0
 10 17  2  0
 11 18  2  0
  8 19  1  1
  9 20  1  1
M  END
>  <MOLREGNO>
1268905

>  <CHEMBLID>
CHEMBL1927943

>  <SYNONYMS>
Isolinderalactone

>  <MAX_PHASE>
0

>  <MOLWEIGHT>
244.29

>  <ALOGP>
2.78

>  <PSA>
39.44

>  <HBA>
2

>  <HBD>
0

>  <RO5>
0

>  <RTB>
1

>  <RO3>
Y

>  <ACD_MOST_APKA>


>  <ACD_MOST_BPKA>


>  <ACD_LOGP>
1.34

>  <ACD_LOGD>
1.34

>  <AROMATIC_RINGS>
1

>  <HEAVY_ATOMS>
18

>  <QED_WEIGHTED>
.43

>  <HBA_LIPINSKI>
3

>  <HBD_LIPINSKI>
0

>  <NUM_LIPINSKI_RO5_VIOLATIONS>
0

>  <MW_MONOISOTOPIC>
244.1099

>  <MOLECULAR_SPECIES>


>  <FULL_MOLFORMULA>
C15H16O3

$$$$

  SciTegic01161211252D

 44 47  0  0  0  0            999 V2000
    0.6458   -0.0875    0.0000 C   0  0  2  0  0  0
    1.4708   -0.0875    0.0000 O   0  0
    1.8811    0.6230    0.0000 C   0  0  1  0  0  0
    1.4708    1.3381    0.0000 C   0  0  2  0  0  0
    0.6458    1.3381    0.0000 C   0  0  1  0  0  0
    0.2311    0.6230    0.0000 C   0  0  1  0  0  0
   -0.6473   -1.0916    0.0000 C   0  0
   -0.6484   -1.9190    0.0000 C   0  0
    0.0664   -2.3319    0.0000 C   0  0
    0.7828   -1.9185    0.0000 C   0  0
    0.7800   -1.0880    0.0000 C   0  0
    0.0646   -0.6789    0.0000 C   0  0
    1.4980   -2.3299    0.0000 C   0  0
    2.2118   -1.9163    0.0000 O   0  0
    1.4992   -3.1549    0.0000 C   0  0
    2.2144   -3.5663    0.0000 C   0  0
    2.2157   -4.3913    0.0000 C   0  0
    1.5033   -4.8020    0.0000 C   0  0
    1.5042   -5.6262    0.0000 C   0  0
    2.2199   -6.0385    0.0000 C   0  0
    2.9361   -5.6204    0.0000 C   0  0
    2.9316   -4.7975    0.0000 C   0  0
    2.2223   -6.8634    0.0000 O   0  0
   -1.3632   -2.3309    0.0000 C   0  0  2  0  0  0
   -2.0759   -1.9173    0.0000 O   0  0
   -2.7886   -2.3257    0.0000 C   0  0  1  0  0  0
   -2.7935   -3.1511    0.0000 C   0  0  2  0  0  0
   -2.0795   -3.5663    0.0000 C   0  0  1  0  0  0
   -1.3606   -3.1563    0.0000 C   0  0  1  0  0  0
   -0.6466   -3.5695    0.0000 O   0  0
   -2.0830   -4.3913    0.0000 O   0  0
   -3.5098   -3.5603    0.0000 O   0  0
   -3.5012   -1.9100    0.0000 C   0  0
   -3.4974   -1.0850    0.0000 O   0  0
   -1.3618   -0.6793    0.0000 O   0  0
   -0.5250   -0.0875    0.0000 O   0  0
   -0.5939    0.6219    0.0000 O   0  0
    0.2341    2.0530    0.0000 O   0  0
    1.8843    2.0520    0.0000 O   0  0
    2.7061    0.6219    0.0000 C   0  0
    3.1176   -0.0932    0.0000 O   0  0
    0.0662   -3.1569    0.0000 O   0  0
    1.4929   -0.6728    0.0000 O   0  0
    1.1211    0.6829    0.0000 H   0  0
 10 11  2  0
 21 22  2  0
 22 17  1  0
  5  4  1  0
 20 23  1  0
 12 11  1  0
 24  8  1  1
 24 25  1  0
 12  7  1  0
  6  5  1  0
 10 13  1  0
 13 14  2  0
 24 29  1  0
 25 26  1  0
 26 27  1  0
 27 28  1  0
 28 29  1  0
  1  2  1  0
 29 30  1  6
 13 15  1  0
 28 31  1  1
  7  8  2  0
 27 32  1  6
 15 16  2  0
 26 33  1  1
  1  6  1  0
 33 34  1  0
 16 17  1  0
  7 35  1  0
  8  9  1  0
 12 36  1  0
  1 12  1  0
 17 18  2  0
  6 37  1  6
  3  2  1  0
  5 38  1  1
 18 19  1  0
  4 39  1  6
  9 10  1  0
  3 40  1  1
 19 20  2  0
 40 41  1  0
  4  3  1  0
  9 42  2  0
 20 21  1  0
 11 43  1  0
  1 44  1  6
M  END
>  <MOLREGNO>
648128

>  <CHEMBLID>
CHEMBL1172243

>  <SYNONYMS>
HYDROXYSAFFLOR YELLOW A

>  <MAX_PHASE>
0

>  <MOLWEIGHT>
612.53

>  <ALOGP>
-4.1

>  <PSA>
295.35

>  <HBA>
16

>  <HBD>
12

>  <RO5>
3

>  <RTB>
7

>  <RO3>
N

>  <ACD_MOST_APKA>
4.5

>  <ACD_MOST_BPKA>


>  <ACD_LOGP>
-4.33

>  <ACD_LOGD>
-7.65

>  <AROMATIC_RINGS>
1

>  <HEAVY_ATOMS>
43

>  <QED_WEIGHTED>
.1

>  <HBA_LIPINSKI>
16

>  <HBD_LIPINSKI>
12

>  <NUM_LIPINSKI_RO5_VIOLATIONS>
2

>  <MW_MONOISOTOPIC>
612.169

>  <MOLECULAR_SPECIES>
ACID

>  <FULL_MOLFORMULA>
C27H32O16

$$$$

  CDK    9/16/09,9:20

 68 71  0  0  0  0  0  0  0  0999 V2000
    4.1750   -4.4000    0.0000 C   0  0  0  0  0  0  0  0  0  0  0  0
    4.1708   -3.5750    0.0000 C   0  0  0  0  0  0  0  0  0  0  0  0
    3.4626   -4.8161    0.0000 C   0  0  0  0  0  0  0  0  0  0  0  0
    4.8915   -4.8089    0.0000 C   0  0  0  0  0  0  0  0  0  0  0  0
    5.6039   -4.3928    0.0000 C   0  0  0  0  0  0  0  0  0  0  0  0
    6.3205   -4.8017    0.0000 C   0  0  0  0  0  0  0  0  0  0  0  0
    7.0328   -4.3856    0.0000 C   0  0  0  0  0  0  0  0  0  0  0  0
    7.7494   -4.7945    0.0000 C   0  0  0  0  0  0  0  0  0  0  0  0
    7.0287   -3.5606    0.0000 C   0  0  0  0  0  0  0  0  0  0  0  0
    8.4618   -4.3783    0.0000 C   0  0  0  0  0  0  0  0  0  0  0  0
    9.1783   -4.7872    0.0000 C   0  0  0  0  0  0  0  0  0  0  0  0
    9.8907   -4.3711    0.0000 C   0  0  0  0  0  0  0  0  0  0  0  0
   10.6072   -4.7800    0.0000 C   0  0  0  0  0  0  0  0  0  0  0  0
   11.3196   -4.3639    0.0000 C   0  0  0  0  0  0  0  0  0  0  0  0
   10.6114   -5.6050    0.0000 C   0  0  0  0  0  0  0  0  0  0  0  0
   12.0362   -4.7728    0.0000 C   0  0  0  0  0  0  0  0  0  0  0  0
   12.7485   -4.3567    0.0000 C   0  0  0  0  0  0  0  0  0  0  0  0
   13.4651   -4.7656    0.0000 C   0  0  0  0  0  0  0  0  0  0  0  0
   14.1775   -4.3495    0.0000 C   0  0  0  0  0  0  0  0  0  0  0  0
   13.4693   -5.5906    0.0000 C   0  0  0  0  0  0  0  0  0  0  0  0
    2.7433   -4.4099    0.0000 O   0  0  0  0  0  0  0  0  0  0  0  0
    3.4640   -5.6438    0.0000 O   0  0  0  0  0  0  0  0  0  0  0  0
   14.8969   -4.7571    0.0000 O   0  0  0  0  0  0  0  0  0  0  0  0
   14.1762   -3.5233    0.0000 O   0  0  0  0  0  0  0  0  0  0  0  0
    2.0328   -4.8292    0.0000 C   0  0  0  0  0  0  0  0  0  0  0  0
    1.3165   -4.4179    0.0000 O   0  0  0  0  0  0  0  0  0  0  0  0
    0.6081   -4.8337    0.0000 C   0  0  0  0  0  0  0  0  0  0  0  0
    0.6117   -5.6590    0.0000 C   0  0  0  0  0  0  0  0  0  0  0  0
    1.3299   -6.0669    0.0000 C   0  0  0  0  0  0  0  0  0  0  0  0
    2.0446   -5.6494    0.0000 C   0  0  0  0  0  0  0  0  0  0  0  0
   15.6080   -4.3389    0.0000 C   0  0  0  0  0  0  0  0  0  0  0  0
   16.3222   -4.7507    0.0000 O   0  0  0  0  0  0  0  0  0  0  0  0
   17.0312   -4.3360    0.0000 C   0  0  0  0  0  0  0  0  0  0  0  0
   17.0289   -3.5106    0.0000 C   0  0  0  0  0  0  0  0  0  0  0  0
   16.3112   -3.1017    0.0000 C   0  0  0  0  0  0  0  0  0  0  0  0
   15.5960   -3.5181    0.0000 C   0  0  0  0  0  0  0  0  0  0  0  0
   16.3074   -2.2767    0.0000 O   0  0  0  0  0  0  0  0  0  0  0  0
    1.3350   -6.8919    0.0000 O   0  0  0  0  0  0  0  0  0  0  0  0
   -0.1088   -4.4253    0.0000 C   0  0  0  0  0  0  0  0  0  0  0  0
   17.7475   -4.7454    0.0000 C   0  0  0  0  0  0  0  0  0  0  0  0
   -0.1135   -3.6003    0.0000 O   0  0  0  0  0  0  0  0  0  0  0  0
   -0.1004   -6.0756    0.0000 O   0  0  0  0  0  0  0  0  0  0  0  0
    2.7630   -6.0549    0.0000 O   0  0  0  0  0  0  0  0  0  0  0  0
   14.8778   -3.1122    0.0000 O   0  0  0  0  0  0  0  0  0  0  0  0
   17.7416   -3.0951    0.0000 O   0  0  0  0  0  0  0  0  0  0  0  0
   17.7510   -5.5704    0.0000 O   0  0  0  0  0  0  0  0  0  0  0  0
   18.4672   -5.9798    0.0000 C   0  0  0  0  0  0  0  0  0  0  0  0
   -0.8303   -3.1919    0.0000 C   0  0  0  0  0  0  0  0  0  0  0  0
   -0.8344   -2.3663    0.0000 O   0  0  0  0  0  0  0  0  0  0  0  0
   -1.5471   -1.9580    0.0000 C   0  0  0  0  0  0  0  0  0  0  0  0
   -2.2617   -2.3711    0.0000 C   0  0  0  0  0  0  0  0  0  0  0  0
   -2.2589   -3.1970    0.0000 C   0  0  0  0  0  0  0  0  0  0  0  0
   -1.5416   -3.6099    0.0000 C   0  0  0  0  0  0  0  0  0  0  0  0
   18.4682   -6.8051    0.0000 O   0  0  0  0  0  0  0  0  0  0  0  0
   19.1803   -7.2144    0.0000 C   0  0  0  0  0  0  0  0  0  0  0  0
   19.8954   -6.8024    0.0000 C   0  0  0  0  0  0  0  0  0  0  0  0
   19.8939   -5.9764    0.0000 C   0  0  0  0  0  0  0  0  0  0  0  0
   19.1772   -5.5625    0.0000 C   0  0  0  0  0  0  0  0  0  0  0  0
   19.1807   -8.0394    0.0000 C   0  0  0  0  0  0  0  0  0  0  0  0
   20.6080   -5.5633    0.0000 O   0  0  0  0  0  0  0  0  0  0  0  0
   -2.9724   -3.6112    0.0000 O   0  0  0  0  0  0  0  0  0  0  0  0
   -1.5488   -1.1330    0.0000 C   0  0  0  0  0  0  0  0  0  0  0  0
   -0.8351   -0.7191    0.0000 O   0  0  0  0  0  0  0  0  0  0  0  0
   19.8954   -8.4516    0.0000 O   0  0  0  0  0  0  0  0  0  0  0  0
   -1.5379   -4.4349    0.0000 O   0  0  0  0  0  0  0  0  0  0  0  0
   -2.9769   -1.9600    0.0000 O   0  0  0  0  0  0  0  0  0  0  0  0
   20.6101   -7.2145    0.0000 O   0  0  0  0  0  0  0  0  0  0  0  0
   19.1740   -4.7375    0.0000 O   0  0  0  0  0  0  0  0  0  0  0  0
 17 18  2  0  0  0  0 
 31 36  1  0  0  0  0 
 32 33  1  0  0  0  0 
 33 34  1  0  0  0  0 
 34 35  1  0  0  0  0 
 35 36  1  0  0  0  0 
  4  5  1  0  0  0  0 
 35 37  1  1  0  0  0 
 18 19  1  0  0  0  0 
 29 38  1  1  0  0  0 
  8 10  1  0  0  0  0 
 27 39  1  1  0  0  0 
 18 20  1  0  0  0  0 
 33 40  1  1  0  0  0 
  1  3  1  0  0  0  0 
 39 41  1  0  0  0  0 
 10 11  2  0  0  0  0 
 28 42  1  6  0  0  0 
  3 21  1  0  0  0  0 
 30 43  1  6  0  0  0 
  3 22  2  0  0  0  0 
 36 44  1  6  0  0  0 
  5  6  2  0  0  0  0 
 34 45  1  6  0  0  0 
 11 12  1  0  0  0  0 
 40 46  1  0  0  0  0 
 19 23  1  0  0  0  0 
 47 46  1  1  0  0  0 
 19 24  2  0  0  0  0 
 48 41  1  1  0  0  0 
 48 49  1  0  0  0  0 
  1  2  1  0  0  0  0 
 25 21  1  1  0  0  0 
 25 26  1  0  0  0  0 
 12 13  2  0  0  0  0 
  6  7  1  0  0  0  0 
 48 53  1  0  0  0  0 
 49 50  1  0  0  0  0 
 50 51  1  0  0  0  0 
 51 52  1  0  0  0  0 
 52 53  1  0  0  0  0 
 47 54  1  0  0  0  0 
 13 14  1  0  0  0  0 
  1  4  2  0  0  0  0 
 13 15  1  0  0  0  0 
 25 30  1  0  0  0  0 
 26 27  1  0  0  0  0 
 47 58  1  0  0  0  0 
 54 55  1  0  0  0  0 
 55 56  1  0  0  0  0 
 56 57  1  0  0  0  0 
 57 58  1  0  0  0  0 
 27 28  1  0  0  0  0 
 55 59  1  1  0  0  0 
 28 29  1  0  0  0  0 
 57 60  1  1  0  0  0 
 29 30  1  0  0  0  0 
 52 61  1  1  0  0  0 
  7  8  2  0  0  0  0 
 50 62  1  1  0  0  0 
 31 23  1  1  0  0  0 
 62 63  1  0  0  0  0 
 31 32  1  0  0  0  0 
 59 64  1  0  0  0  0 
 14 16  2  0  0  0  0 
 53 65  1  6  0  0  0 
 51 66  1  6  0  0  0 
 16 17  1  0  0  0  0 
 56 67  1  6  0  0  0 
  7  9  1  0  0  0  0 
 58 68  1  6  0  0  0 
M  END
>  <MOLREGNO>
484345

>  <CHEMBLID>
CHEMBL446785

>  <SYNONYMS>
Crocin | Crocin 1 | Crocetin Di(Beta-Gentiobiosyl)Ester

>  <MAX_PHASE>
0

>  <MOLWEIGHT>
976.96

>  <ALOGP>
-2.72

>  <PSA>
391.2

>  <HBA>
24

>  <HBD>
14

>  <RO5>
3

>  <RTB>
20

>  <RO3>
N

>  <ACD_MOST_APKA>
12.2

>  <ACD_MOST_BPKA>


>  <ACD_LOGP>
-4.74

>  <ACD_LOGD>
-4.74

>  <AROMATIC_RINGS>
0

>  <HEAVY_ATOMS>
68

>  <QED_WEIGHTED>
.03

>  <HBA_LIPINSKI>
24

>  <HBD_LIPINSKI>
14

>  <NUM_LIPINSKI_RO5_VIOLATIONS>
2

>  <MW_MONOISOTOPIC>
976.3788

>  <MOLECULAR_SPECIES>
NEUTRAL

>  <FULL_MOLFORMULA>
C44H64O24

$$$$

  SciTegic12231509382D

 22 24  0  0  0  0            999 V2000
    2.8618   -2.4815    0.0000 O   0  0
    2.8618    0.0000    0.0000 O   0  0
    4.3056   -0.8250    0.0000 O   0  0
    1.4309    0.0000    0.0000 O   0  0
    5.0146   -1.2311    0.0000 O   0  0
    0.0000   -2.4815    0.0000 O   0  0
    6.4455   -3.7191    0.0000 O   0  0
    2.1463   -1.2311    0.0000 C   0  0
    3.5901   -2.0561    0.0000 C   0  0
    2.1463   -2.0561    0.0000 C   0  0
    2.8618   -0.8250    0.0000 C   0  0
    3.5901   -1.2311    0.0000 C   0  0
    4.3056   -2.4815    0.0000 C   0  0
    1.4309   -0.8250    0.0000 C   0  0
    1.4309   -2.4815    0.0000 C   0  0
    5.0146   -2.0561    0.0000 C   0  0
    0.7154   -2.0561    0.0000 C   0  0
    0.7154   -1.2311    0.0000 C   0  0
    4.3056   -3.3065    0.0000 C   0  0
    5.7301   -2.4815    0.0000 C   0  0
    5.7301   -3.3065    0.0000 C   0  0
    5.0146   -3.7191    0.0000 C   0  0
  1  9  1  0
  1 10  1  0
  2 11  2  0
  3 12  1  0
  4 14  1  0
  5 16  1  0
  6 17  1  0
  7 21  1  0
  8 10  2  0
  8 11  1  0
  8 14  1  0
  9 12  2  0
  9 13  1  0
 10 15  1  0
 11 12  1  0
 13 16  2  0
 13 19  1  0
 14 18  2  0
 15 17  2  0
 16 20  1  0
 17 18  1  0
 19 22  2  0
 20 21  2  0
 21 22  1  0
M  END
>  <MOLREGNO>
42426

>  <CHEMBLID>
CHEMBL28626

>  <SYNONYMS>
NSC-19801

>  <MAX_PHASE>
0

>  <MOLWEIGHT>
302.24

>  <ALOGP>
1.63

>  <PSA>
127.45

>  <HBA>
7

>  <HBD>
5

>  <RO5>
0

>  <RTB>
1

>  <RO3>
N

>  <ACD_MOST_APKA>
6.3

>  <ACD_MOST_BPKA>


>  <ACD_LOGP>
2.7

>  <ACD_LOGD>
1.31

>  <AROMATIC_RINGS>
2

>  <HEAVY_ATOMS>
22

>  <QED_WEIGHTED>
.54

>  <HBA_LIPINSKI>
7

>  <HBD_LIPINSKI>
5

>  <NUM_LIPINSKI_RO5_VIOLATIONS>
0

>  <MW_MONOISOTOPIC>
302.0427

>  <MOLECULAR_SPECIES>
ACID

>  <FULL_MOLFORMULA>
C15H10O7

$$$$

  SciTegic12231509382D

 11 11  0  0  0  0            999 V2000
   -3.1458   -6.0083    0.0000 C   0  0  2  0  0  0
   -3.1458   -6.8333    0.0000 C   0  0  2  0  0  0
   -2.4338   -7.2417    0.0000 C   0  0  1  0  0  0
   -1.7218   -6.8333    0.0000 C   0  0  2  0  0  0
   -1.7218   -6.0083    0.0000 C   0  0
   -2.4338   -5.5917    0.0000 N   0  0
   -3.8615   -5.5979    0.0000 C   0  0
   -3.8639   -4.7729    0.0000 O   0  0
   -1.0079   -7.2469    0.0000 O   0  0
   -3.8597   -7.2469    0.0000 O   0  0
   -2.4338   -8.0667    0.0000 O   0  0
  4  5  1  0
  5  6  1  0
  1  7  1  1
  1  2  1  0
  7  8  1  0
  1  6  1  0
  4  9  1  6
  2  3  1  0
  2 10  1  6
  3  4  1  0
  3 11  1  1
M  END
>  <MOLREGNO>
123534

>  <CHEMBLID>
CHEMBL307429

>  <SYNONYMS>
AT2220 | Deoxynojirimycin | DUVOGLUSTAT | DUVOGLUSTAT HYDROCHLORIDE

>  <MAX_PHASE>
2

>  <MOLWEIGHT>
163.17

>  <ALOGP>
-2.44

>  <PSA>
92.95

>  <HBA>
5

>  <HBD>
5

>  <RO5>
0

>  <RTB>
1

>  <RO3>
N

>  <ACD_MOST_APKA>


>  <ACD_MOST_BPKA>
7.91

>  <ACD_LOGP>
2.34

>  <ACD_LOGD>
2.01

>  <AROMATIC_RINGS>
0

>  <HEAVY_ATOMS>
11

>  <QED_WEIGHTED>
.3

>  <HBA_LIPINSKI>
5

>  <HBD_LIPINSKI>
5

>  <NUM_LIPINSKI_RO5_VIOLATIONS>
0

>  <MW_MONOISOTOPIC>
163.0845

>  <MOLECULAR_SPECIES>
NEUTRAL

>  <FULL_MOLFORMULA>
C6H13NO4

$$$$

  CDK    9/16/09,9:20

 40 43  0  0  0  0  0  0  0  0999 V2000
   25.3086  -18.8857    0.0000 C   0  0  0  0  0  0  0  0  0  0  0  0
   25.3098  -18.0583    0.0000 C   0  0  0  0  0  0  0  0  0  0  0  0
   24.5950  -17.6454    0.0000 C   0  0  0  0  0  0  0  0  0  0  0  0
   23.8785  -18.0588    0.0000 C   0  0  0  0  0  0  0  0  0  0  0  0
   23.8814  -18.8893    0.0000 C   0  0  0  0  0  0  0  0  0  0  0  0
   24.5968  -19.2984    0.0000 C   0  0  0  0  0  0  0  0  0  0  0  0
   23.1634  -17.6474    0.0000 C   0  0  0  0  0  0  0  0  0  0  0  0
   23.1621  -16.8224    0.0000 C   0  0  0  0  0  0  0  0  0  0  0  0
   21.0182  -15.5856    0.0000 C   0  0  0  0  0  0  0  0  0  0  0  0
   21.0171  -16.4130    0.0000 C   0  0  0  0  0  0  0  0  0  0  0  0
   21.7319  -16.8258    0.0000 C   0  0  0  0  0  0  0  0  0  0  0  0
   22.4483  -16.4125    0.0000 C   0  0  0  0  0  0  0  0  0  0  0  0
   22.4455  -15.5820    0.0000 C   0  0  0  0  0  0  0  0  0  0  0  0
   21.7301  -15.1728    0.0000 C   0  0  0  0  0  0  0  0  0  0  0  0
   21.7317  -17.6508    0.0000 O   0  0  0  0  0  0  0  0  0  0  0  0
   20.3037  -15.1733    0.0000 O   0  0  0  0  0  0  0  0  0  0  0  0
   19.5893  -15.5859    0.0000 C   0  0  0  0  0  0  0  0  0  0  0  0
   18.8768  -15.1688    0.0000 O   0  0  0  0  0  0  0  0  0  0  0  0
   18.1646  -15.5779    0.0000 C   0  0  0  0  0  0  0  0  0  0  0  0
   18.1605  -16.4033    0.0000 C   0  0  0  0  0  0  0  0  0  0  0  0
   18.8749  -16.8178    0.0000 C   0  0  0  0  0  0  0  0  0  0  0  0
   19.5934  -16.4070    0.0000 C   0  0  0  0  0  0  0  0  0  0  0  0
   18.8723  -17.6428    0.0000 O   0  0  0  0  0  0  0  0  0  0  0  0
   17.4516  -15.1629    0.0000 C   0  0  0  0  0  0  0  0  0  0  0  0
   17.4545  -14.3379    0.0000 O   0  0  0  0  0  0  0  0  0  0  0  0
   20.3080  -16.8192    0.0000 O   0  0  0  0  0  0  0  0  0  0  0  0
   17.4446  -16.8132    0.0000 O   0  0  0  0  0  0  0  0  0  0  0  0
   24.5992  -20.1234    0.0000 O   0  0  0  0  0  0  0  0  0  0  0  0
   26.0243  -17.6460    0.0000 O   0  0  0  0  0  0  0  0  0  0  0  0
   26.7387  -18.0586    0.0000 C   0  0  0  0  0  0  0  0  0  0  0  0
   27.4512  -17.6415    0.0000 O   0  0  0  0  0  0  0  0  0  0  0  0
   28.1634  -18.0506    0.0000 C   0  0  0  0  0  0  0  0  0  0  0  0
   28.1675  -18.8760    0.0000 C   0  0  0  0  0  0  0  0  0  0  0  0
   27.4531  -19.2905    0.0000 C   0  0  0  0  0  0  0  0  0  0  0  0
   26.7346  -18.8797    0.0000 C   0  0  0  0  0  0  0  0  0  0  0  0
   27.4557  -20.1155    0.0000 O   0  0  0  0  0  0  0  0  0  0  0  0
   28.8764  -17.6356    0.0000 C   0  0  0  0  0  0  0  0  0  0  0  0
   28.8735  -16.8106    0.0000 O   0  0  0  0  0  0  0  0  0  0  0  0
   26.0200  -19.2919    0.0000 O   0  0  0  0  0  0  0  0  0  0  0  0
   28.8834  -19.2859    0.0000 O   0  0  0  0  0  0  0  0  0  0  0  0
 10 11  1  0  0  0  0 
 17 22  1  0  0  0  0 
 18 19  1  0  0  0  0 
 19 20  1  0  0  0  0 
 20 21  1  0  0  0  0 
 21 22  1  0  0  0  0 
  5  6  2  0  0  0  0 
 21 23  1  1  0  0  0 
 11 12  2  0  0  0  0 
 19 24  1  1  0  0  0 
  6  1  1  0  0  0  0 
 24 25  1  0  0  0  0 
 12 13  1  0  0  0  0 
 22 26  1  6  0  0  0 
  1  2  2  0  0  0  0 
 20 27  1  6  0  0  0 
 12  8  1  0  0  0  0 
 13 14  2  0  0  0  0 
  6 28  1  0  0  0  0 
 14  9  1  0  0  0  0 
  4  7  1  0  0  0  0 
 30 29  1  6  0  0  0 
 30 31  1  0  0  0  0 
 11 15  1  0  0  0  0 
  3  4  2  0  0  0  0 
  9 16  1  0  0  0  0 
  7  8  2  0  0  0  0 
 17 16  1  1  0  0  0 
 30 35  1  0  0  0  0 
 31 32  1  0  0  0  0 
 32 33  1  0  0  0  0 
 33 34  1  0  0  0  0 
 34 35  1  0  0  0  0 
 17 18  1  0  0  0  0 
 34 36  1  6  0  0  0 
 32 37  1  6  0  0  0 
  4  5  1  0  0  0  0 
 37 38  1  0  0  0  0 
  9 10  2  0  0  0  0 
 35 39  1  1  0  0  0 
  2  3  1  0  0  0  0 
 33 40  1  1  0  0  0 
 29  2  1  0  0  0  0 
M  END
>  <MOLREGNO>
445108

>  <CHEMBLID>
CHEMBL455619

>  <SYNONYMS>
MULBERROSIDE A

>  <MAX_PHASE>
0

>  <MOLWEIGHT>
568.52

>  <ALOGP>
-1.01

>  <PSA>
239.21

>  <HBA>
14

>  <HBD>
10

>  <RO5>
3

>  <RTB>
8

>  <RO3>
N

>  <ACD_MOST_APKA>
9.03

>  <ACD_MOST_BPKA>


>  <ACD_LOGP>
-2.62

>  <ACD_LOGD>
-2.63

>  <AROMATIC_RINGS>
2

>  <HEAVY_ATOMS>
40

>  <QED_WEIGHTED>
.17

>  <HBA_LIPINSKI>
14

>  <HBD_LIPINSKI>
10

>  <NUM_LIPINSKI_RO5_VIOLATIONS>
2

>  <MW_MONOISOTOPIC>
568.1792

>  <MOLECULAR_SPECIES>
NEUTRAL

>  <FULL_MOLFORMULA>
C26H32O14

$$$$

  CDK    9/16/09,9:20

 31 34  0  0  0  0  0  0  0  0999 V2000
   11.9043   -1.2131    0.0000 C   0  0  0  0  0  0  0  0  0  0  0  0
   11.1939   -0.8007    0.0000 C   0  0  0  0  0  0  0  0  0  0  0  0
   11.9037   -2.0370    0.0000 O   0  0  0  0  0  0  0  0  0  0  0  0
   12.6195   -0.8018    0.0000 C   0  0  0  0  0  0  0  0  0  0  0  0
   12.6201    0.0220    0.0000 C   0  0  0  0  0  0  0  0  0  0  0  0
   13.3352    0.4334    0.0000 C   0  0  0  0  0  0  0  0  0  0  0  0
   14.0497    0.0209    0.0000 C   0  0  0  0  0  0  0  0  0  0  0  0
   13.3358    1.2613    0.0000 C   0  0  0  0  0  0  0  0  0  0  0  0
   12.6172    1.6863    0.0000 O   0  0  0  0  0  0  0  0  0  0  0  0
   14.0510    1.6727    0.0000 C   0  0  0  0  0  0  0  0  0  0  0  0
   14.7655    1.2603    0.0000 C   0  0  0  0  0  0  0  0  0  0  0  0
   15.4848    1.6800    0.0000 O   0  0  0  0  0  0  0  0  0  0  0  0
   14.7649    0.4323    0.0000 C   0  0  0  0  0  0  0  0  0  0  0  0
   11.9055    0.4345    0.0000 O   0  0  0  0  0  0  0  0  0  0  0  0
   11.1945    0.0231    0.0000 C   0  0  0  0  0  0  0  0  0  0  0  0
    9.7685   -0.7996    0.0000 C   0  0  0  0  0  0  0  0  0  0  0  0
   10.4830   -1.2121    0.0000 C   0  0  0  0  0  0  0  0  0  0  0  0
   10.4824   -2.0360    0.0000 O   0  0  0  0  0  0  0  0  0  0  0  0
   13.3324   -1.2145    0.0000 C   0  0  0  0  0  0  0  0  0  0  0  0
   13.3315   -2.0384    0.0000 C   0  0  0  0  0  0  0  0  0  0  0  0
   14.0444   -2.4512    0.0000 C   0  0  0  0  0  0  0  0  0  0  0  0
   14.0434   -3.2750    0.0000 C   0  0  0  0  0  0  0  0  0  0  0  0
   14.7583   -2.0401    0.0000 C   0  0  0  0  0  0  0  0  0  0  0  0
    9.7691    0.0242    0.0000 C   0  0  0  0  0  0  0  0  0  0  0  0
   10.4888    0.4337    0.0000 C   0  0  0  0  0  0  0  0  0  0  0  0
   10.4939    1.2572    0.0000 C   0  0  0  0  0  0  0  0  0  0  0  0
    9.7812    1.6774    0.0000 C   0  0  0  0  0  0  0  0  0  0  0  0
    9.0614    1.2678    0.0000 C   0  0  0  0  0  0  0  0  0  0  0  0
    9.0545    0.4381    0.0000 O   0  0  0  0  0  0  0  0  0  0  0  0
    9.0536    2.0928    0.0000 C   0  0  0  0  0  0  0  0  0  0  0  0
    8.3422    0.8613    0.0000 C   0  0  0  0  0  0  0  0  0  0  0  0
  7 13  2  0  0  0  0 
  5 14  1  0  0  0  0 
 14 15  1  0  0  0  0 
  2 15  1  0  0  0  0 
 15 25  2  0  0  0  0 
 24 16  2  0  0  0  0 
 16 17  1  0  0  0  0 
 17 18  1  0  0  0  0 
  2 17  2  0  0  0  0 
  4 19  1  0  0  0  0 
  1  2  1  0  0  0  0 
 19 20  1  0  0  0  0 
  1  3  2  0  0  0  0 
 20 21  2  0  0  0  0 
  1  4  1  0  0  0  0 
 21 22  1  0  0  0  0 
  4  5  2  0  0  0  0 
 21 23  1  0  0  0  0 
 24 25  1  0  0  0  0 
  5  6  1  0  0  0  0 
  6  7  1  0  0  0  0 
  6  8  2  0  0  0  0 
  8  9  1  0  0  0  0 
  8 10  1  0  0  0  0 
 10 11  2  0  0  0  0 
 24 29  1  0  0  0  0 
 25 26  1  0  0  0  0 
 26 27  2  0  0  0  0 
 27 28  1  0  0  0  0 
 28 29  1  0  0  0  0 
 11 12  1  0  0  0  0 
 28 30  1  0  0  0  0 
 11 13  1  0  0  0  0 
 28 31  1  0  0  0  0 
M  END
>  <MOLREGNO>
444479

>  <CHEMBLID>
CHEMBL464006

>  <SYNONYMS>


>  <MAX_PHASE>
0

>  <MOLWEIGHT>
420.45

>  <ALOGP>
5.01

>  <PSA>
96.22

>  <HBA>
6

>  <HBD>
3

>  <RO5>
1

>  <RTB>
3

>  <RO3>
N

>  <ACD_MOST_APKA>
6.55

>  <ACD_MOST_BPKA>


>  <ACD_LOGP>
6.41

>  <ACD_LOGD>
5.49

>  <AROMATIC_RINGS>
2

>  <HEAVY_ATOMS>
31

>  <QED_WEIGHTED>
.6

>  <HBA_LIPINSKI>
6

>  <HBD_LIPINSKI>
3

>  <NUM_LIPINSKI_RO5_VIOLATIONS>
1

>  <MW_MONOISOTOPIC>
420.1573

>  <MOLECULAR_SPECIES>
NEUTRAL

>  <FULL_MOLFORMULA>
C25H24O6

$$$$

  CDK    9/16/09,9:20

 25 27  0  0  0  0  0  0  0  0999 V2000
   12.2678    1.8895    0.0000 C   0  0  0  0  0  0  0  0  0  0  0  0
   12.2666    1.0631    0.0000 C   0  0  0  0  0  0  0  0  0  0  0  0
   12.9807    0.6508    0.0000 C   0  0  0  0  0  0  0  0  0  0  0  0
   12.9789    2.3019    0.0000 C   0  0  0  0  0  0  0  0  0  0  0  0
   13.6934    1.8931    0.0000 C   0  0  0  0  0  0  0  0  0  0  0  0
   13.6969    1.0611    0.0000 C   0  0  0  0  0  0  0  0  0  0  0  0
   14.4151    0.6503    0.0000 O   0  0  0  0  0  0  0  0  0  0  0  0
   15.1347    1.0670    0.0000 C   0  0  0  0  0  0  0  0  0  0  0  0
   15.1313    1.8990    0.0000 C   0  0  0  0  0  0  0  0  0  0  0  0
   14.4083    2.3144    0.0000 C   0  0  0  0  0  0  0  0  0  0  0  0
   15.8495    0.6568    0.0000 O   0  0  0  0  0  0  0  0  0  0  0  0
   11.5540    2.3014    0.0000 O   0  0  0  0  0  0  0  0  0  0  0  0
   11.5538    3.1254    0.0000 C   0  0  0  0  0  0  0  0  0  0  0  0
   11.5526    0.6517    0.0000 O   0  0  0  0  0  0  0  0  0  0  0  0
   11.5520   -0.1724    0.0000 C   0  0  0  0  0  0  0  0  0  0  0  0
   10.8325   -0.5812    0.0000 O   0  0  0  0  0  0  0  0  0  0  0  0
   10.8299   -1.4017    0.0000 C   0  0  0  0  0  0  0  0  0  0  0  0
   11.5413   -1.8182    0.0000 C   0  0  0  0  0  0  0  0  0  0  0  0
   12.2571   -1.4080    0.0000 C   0  0  0  0  0  0  0  0  0  0  0  0
   12.2614   -0.5812    0.0000 C   0  0  0  0  0  0  0  0  0  0  0  0
   12.9690   -1.8230    0.0000 O   0  0  0  0  0  0  0  0  0  0  0  0
   10.1143   -1.8105    0.0000 C   0  0  0  0  0  0  0  0  0  0  0  0
    9.4025   -1.3952    0.0000 O   0  0  0  0  0  0  0  0  0  0  0  0
   11.5375   -2.6423    0.0000 O   0  0  0  0  0  0  0  0  0  0  0  0
   12.9760   -0.1709    0.0000 O   0  0  0  0  0  0  0  0  0  0  0  0
  1 12  1  0  0  0  0 
  2  3  1  0  0  0  0 
 12 13  1  0  0  0  0 
  3  6  2  0  0  0  0 
  2 14  1  0  0  0  0 
  1  2  2  0  0  0  0 
 15 14  1  1  0  0  0 
 15 16  1  0  0  0  0 
  5  4  2  0  0  0  0 
  4  1  1  0  0  0  0 
  5 10  1  0  0  0  0 
  6  7  1  0  0  0  0 
  7  8  1  0  0  0  0 
 15 20  1  0  0  0  0 
 16 17  1  0  0  0  0 
 17 18  1  0  0  0  0 
 18 19  1  0  0  0  0 
 19 20  1  0  0  0  0 
  8  9  1  0  0  0  0 
 19 21  1  1  0  0  0 
  9 10  2  0  0  0  0 
 17 22  1  1  0  0  0 
  5  6  1  0  0  0  0 
 22 23  1  0  0  0  0 
  8 11  2  0  0  0  0 
 18 24  1  6  0  0  0 
 20 25  1  6  0  0  0 
M  END
>  <MOLREGNO>
373265

>  <CHEMBLID>
CHEMBL225024

>  <SYNONYMS>
Scopolin

>  <MAX_PHASE>
0

>  <MOLWEIGHT>
354.31

>  <ALOGP>
-.29

>  <PSA>
134.91

>  <HBA>
9

>  <HBD>
4

>  <RO5>
0

>  <RTB>
4

>  <RO3>
N

>  <ACD_MOST_APKA>
12.71

>  <ACD_MOST_BPKA>


>  <ACD_LOGP>
-1.56

>  <ACD_LOGD>
-1.56

>  <AROMATIC_RINGS>
1

>  <HEAVY_ATOMS>
25

>  <QED_WEIGHTED>
.43

>  <HBA_LIPINSKI>
9

>  <HBD_LIPINSKI>
4

>  <NUM_LIPINSKI_RO5_VIOLATIONS>
0

>  <MW_MONOISOTOPIC>
354.0951

>  <MOLECULAR_SPECIES>
NEUTRAL

>  <FULL_MOLFORMULA>
C16H18O9

$$$$

  SciTegic12011117302D

 71 78  0  0  0  0            999 V2000
   18.4545   -2.1972    0.0000 C   0  0
   18.4478   -3.0221    0.0000 O   0  0
   19.1723   -1.7905    0.0000 O   0  0
   12.7461   -3.0138    0.0000 C   0  0  1  0  0  0
   12.7461   -3.8388    0.0000 C   0  0  1  0  0  0
   13.4582   -4.2472    0.0000 C   0  0  1  0  0  0
   13.4582   -2.5972    0.0000 C   0  0
   14.1702   -3.0138    0.0000 C   0  0  1  0  0  0
   14.1712   -3.8388    0.0000 C   0  0  1  0  0  0
   14.8823   -4.2481    0.0000 C   0  0
   15.5968   -3.8370    0.0000 C   0  0
   14.8802   -2.5981    0.0000 C   0  0  2  0  0  0
   15.5977   -3.0127    0.0000 C   0  0  2  0  0  0
   15.5965   -1.3582    0.0000 C   0  0
   14.8764   -1.7718    0.0000 C   0  0
   16.3140   -1.7728    0.0000 C   0  0
   16.3083   -2.6014    0.0000 C   0  0  1  0  0  0
   17.0192   -3.0182    0.0000 C   0  0
   17.7402   -2.6111    0.0000 C   0  0
   17.0305   -1.3610    0.0000 C   0  0  1  0  0  0
   17.7457   -1.7874    0.0000 C   0  0  1  0  0  0
   18.4685   -1.3834    0.0000 C   0  0
   18.4824   -0.5515    0.0000 C   0  0
   17.7672   -0.1252    0.0000 C   0  0  2  0  0  0
   17.0381   -0.5307    0.0000 C   0  0  2  0  0  0
   14.1628   -2.1888    0.0000 C   0  0
   15.5920   -2.1847    0.0000 C   0  0
   13.0378   -4.9597    0.0000 C   0  0
   13.8628   -4.9597    0.0000 C   0  0
   12.0323   -4.2524    0.0000 O   0  0
   16.3003   -3.4263    0.0000 C   0  0
   17.0253   -2.1847    0.0000 H   0  0
   14.6878   -4.9655    0.0000 O   0  0
   16.3289   -0.1093    0.0000 C   0  0
   17.7796    0.6997    0.0000 C   0  0
   12.0305   -2.6034    0.0000 O   0  0
   13.4545   -3.4222    0.0000 H   0  0
   14.8753   -3.4222    0.0000 H   0  0
   19.1589   -3.4404    0.0000 C   0  0  2  0  0  0
   19.1499   -4.2646    0.0000 O   0  0
   19.8569   -4.6828    0.0000 C   0  0  1  0  0  0
   20.5771   -4.2796    0.0000 C   0  0  2  0  0  0
   20.5858   -3.4537    0.0000 C   0  0  1  0  0  0
   19.8743   -3.0309    0.0000 C   0  0  1  0  0  0
   19.8471   -5.5077    0.0000 C   0  0
   19.1278   -5.9117    0.0000 O   0  0
   21.2866   -4.7006    0.0000 O   0  0
   21.3050   -3.0495    0.0000 O   0  0
   19.8810   -2.2060    0.0000 O   0  0
   19.1179   -6.7366    0.0000 C   0  0  2  0  0  0
   18.3981   -7.1373    0.0000 O   0  0
   18.3864   -7.9587    0.0000 C   0  0  1  0  0  0
   19.0940   -8.3835    0.0000 C   0  0  2  0  0  0
   19.8151   -7.9808    0.0000 C   0  0  1  0  0  0
   19.8287   -7.1533    0.0000 C   0  0  1  0  0  0
   17.6655   -8.3599    0.0000 C   0  0
   16.9576   -7.9362    0.0000 O   0  0
   19.0811   -9.2084    0.0000 O   0  0
   20.5478   -6.7490    0.0000 O   0  0
   20.5232   -8.4042    0.0000 O   0  0
   18.3602   -9.6096    0.0000 C   0  0  2  0  0  0
   17.6572   -9.1846    0.0000 O   0  0
   16.9386   -9.5824    0.0000 C   0  0  1  0  0  0
   16.9214  -10.4075    0.0000 C   0  0  1  0  0  0
   17.6291  -10.8334    0.0000 C   0  0  2  0  0  0
   18.3540  -10.4341    0.0000 C   0  0  1  0  0  0
   16.2323   -9.1560    0.0000 C   0  0
   16.1990  -10.8061    0.0000 O   0  0
   17.6133  -11.6583    0.0000 O   0  0
   19.0627  -10.8564    0.0000 O   0  0
   19.1545   -9.8179    0.0000 H   0  0
 25 34  1  1
  8  9  1  0
 24 35  1  6
 21  1  1  1
  1  2  1  0
  4 36  1  6
  9 37  1  6
  1  3  2  0
 12 38  1  6
 16 20  1  0
 39  2  1  1
 39 40  1  0
 17 18  1  0
 18 19  1  0
 19 21  1  0
 20 21  1  0
  4  5  1  0
 39 44  1  0
 40 41  1  0
 41 42  1  0
 42 43  1  0
 43 44  1  0
  8 12  1  0
 41 45  1  1
  9 10  1  0
 45 46  1  0
 10 11  1  0
 42 47  1  6
 11 13  1  0
 43 48  1  1
 12 13  1  0
 44 49  1  6
 20 25  1  0
 50 46  1  1
 50 51  1  0
 21 22  1  0
 22 23  1  0
 23 24  1  0
 24 25  1  0
  4  7  1  0
 50 55  1  0
 51 52  1  0
 52 53  1  0
 53 54  1  0
 54 55  1  0
  8 26  1  1
 52 56  1  1
  5  6  1  0
 56 57  1  0
 13 27  1  1
 53 58  1  6
  6  9  1  0
 55 59  1  6
  6 28  1  1
 54 60  1  1
  8  7  1  0
 61 58  1  0
 61 62  1  0
  6 29  1  0
 12 15  1  0
  5 30  1  1
 13 17  1  0
 17 31  1  6
 61 66  1  0
 62 63  1  0
 63 64  1  0
 64 65  1  0
 65 66  1  0
 16 14  2  0
 63 67  1  1
 20 32  1  1
 14 15  1  0
 64 68  1  1
 29 33  1  0
 65 69  1  6
 16 17  1  0
 66 70  1  6
 61 71  1  6
M  END
>  <MOLREGNO>
1153596

>  <CHEMBLID>
CHEMBL1789965

>  <SYNONYMS>
Asiaticoside

>  <MAX_PHASE>
0

>  <MOLWEIGHT>
959.12

>  <ALOGP>
-.1

>  <PSA>
315.2

>  <HBA>
19

>  <HBD>
12

>  <RO5>
3

>  <RTB>
10

>  <RO3>
N

>  <ACD_MOST_APKA>
12.5

>  <ACD_MOST_BPKA>


>  <ACD_LOGP>
.09

>  <ACD_LOGD>
.09

>  <AROMATIC_RINGS>
0

>  <HEAVY_ATOMS>
67

>  <QED_WEIGHTED>
.1

>  <HBA_LIPINSKI>
19

>  <HBD_LIPINSKI>
12

>  <NUM_LIPINSKI_RO5_VIOLATIONS>
2

>  <MW_MONOISOTOPIC>
958.5137

>  <MOLECULAR_SPECIES>
NEUTRAL

>  <FULL_MOLFORMULA>
C48H78O19

$$$$

  SciTegic11201309402D

 38 42  0  0  0  0            999 V2000
   -3.9802   -0.3709    0.0000 O   0  0
   -3.1552   -0.3709    0.0000 C   0  0  1  0  0  0
   -2.7427   -1.0853    0.0000 C   0  0  2  0  0  0
   -3.1552   -1.7998    0.0000 O   0  0
   -1.9177   -1.0853    0.0000 C   0  0
   -1.5052   -0.3709    0.0000 C   0  0  2  0  0  0
   -1.0927   -1.0853    0.0000 C   0  0
   -0.6802   -0.3709    0.0000 C   0  0  1  0  0  0
   -0.2677   -1.0853    0.0000 C   0  0
    0.5573   -1.0853    0.0000 C   0  0
    0.9698   -0.3709    0.0000 C   0  0
    1.7948   -0.3709    0.0000 C   0  0  2  0  0  0
    2.2073   -1.0853    0.0000 C   0  0  1  0  0  0
    1.7948   -1.7998    0.0000 C   0  0
    3.0323   -1.0853    0.0000 C   0  0  2  0  0  0
    3.4448   -1.7998    0.0000 C   0  0
    3.4448   -0.3709    0.0000 C   0  0
    3.0323    0.3436    0.0000 C   0  0
    2.2073    0.3436    0.0000 C   0  0  1  0  0  0
    2.6198    1.0581    0.0000 C   0  0
    2.2073    1.7725    0.0000 O   0  0
    3.4448    1.0581    0.0000 O   0  0
    1.7948    1.0581    0.0000 C   0  0
    0.9698    1.0581    0.0000 C   0  0
    0.5573    0.3436    0.0000 C   0  0  2  0  0  0
    0.1448    1.0581    0.0000 C   0  0
   -0.2677    0.3436    0.0000 C   0  0  1  0  0  0
   -0.3539    1.1641    0.0000 C   0  0
   -0.6802    1.0581    0.0000 C   0  0
   -1.5052    1.0581    0.0000 C   0  0
   -1.9177    0.3436    0.0000 C   0  0  1  0  0  0
   -2.7427    0.3436    0.0000 C   0  0  1  0  0  0
   -2.5994    1.1561    0.0000 C   0  0
   -3.5179    0.6258    0.0000 C   0  0
   -3.6612    1.4382    0.0000 O   0  0
   -2.4177    1.2096    0.0000 H   0  0
    1.2948   -1.2369    0.0000 H   0  0
   -1.1802   -1.2369    0.0000 H   0  0
 20 22  2  0
 20 21  1  0
 19 20  1  6
 27 28  1  6
  6  7  1  6
 32 33  1  6
 30 29  1  0
 31 30  1  0
 19 18  1  0
 19 12  1  0
 23 19  1  0
 29 27  1  0
 27  8  1  0
 25 27  1  0
  6  8  1  0
  6 31  1  0
  5  6  1  0
 17 18  1  0
  9 10  1  0
  8  9  1  0
 10 11  2  0
 24 23  1  0
 25 24  1  0
 12 11  1  0
 12 13  1  0
 11 25  1  0
 32 31  1  0
 32 34  1  0
  2 32  1  0
 25 26  1  1
  5  3  1  0
  3  2  1  0
  3  4  1  1
 34 35  1  0
  2  1  1  6
 15 17  1  0
 13 14  1  6
 13 15  1  0
 15 16  1  1
 31 36  1  1
 12 37  1  6
  8 38  1  1
M  END
>  <MOLREGNO>
433672

>  <CHEMBLID>
CHEMBL404313

>  <SYNONYMS>
Asiatic acid

>  <MAX_PHASE>
0

>  <MOLWEIGHT>
488.7

>  <ALOGP>
4.44

>  <PSA>
97.99

>  <HBA>
5

>  <HBD>
4

>  <RO5>
0

>  <RTB>
2

>  <RO3>
N

>  <ACD_MOST_APKA>
4.66

>  <ACD_MOST_BPKA>


>  <ACD_LOGP>
5.75

>  <ACD_LOGD>
3.05

>  <AROMATIC_RINGS>
0

>  <HEAVY_ATOMS>
35

>  <QED_WEIGHTED>
.43

>  <HBA_LIPINSKI>
5

>  <HBD_LIPINSKI>
4

>  <NUM_LIPINSKI_RO5_VIOLATIONS>
0

>  <MW_MONOISOTOPIC>
488.3502

>  <MOLECULAR_SPECIES>
ACID

>  <FULL_MOLFORMULA>
C30H48O5

$$$$

  CDK    9/16/09,9:51

 39 43  0  0  0  0  0  0  0  0999 V2000
    9.0027   -0.8616    0.0000 C   0  0  0  0  0  0  0  0  0  0  0  0
    9.0027   -1.6899    0.0000 C   0  0  0  0  0  0  0  0  0  0  0  0
    9.7181   -2.0977    0.0000 C   0  0  0  0  0  0  0  0  0  0  0  0
    9.7181   -0.4412    0.0000 C   0  0  0  0  0  0  0  0  0  0  0  0
   10.4293   -0.8616    0.0000 C   0  0  0  0  0  0  0  0  0  0  0  0
   10.4304   -1.6899    0.0000 C   0  0  0  0  0  0  0  0  0  0  0  0
   11.1448   -2.0987    0.0000 C   0  0  0  0  0  0  0  0  0  0  0  0
   11.8628   -1.6880    0.0000 C   0  0  0  0  0  0  0  0  0  0  0  0
   11.1427   -0.4421    0.0000 C   0  0  0  0  0  0  0  0  0  0  0  0
   11.8574   -0.8621    0.0000 C   0  0  0  0  0  0  0  0  0  0  0  0
   11.8653    0.7897    0.0000 C   0  0  0  0  0  0  0  0  0  0  0  0
   11.1435    0.3829    0.0000 C   0  0  0  0  0  0  0  0  0  0  0  0
   12.5799    0.3741    0.0000 C   0  0  0  0  0  0  0  0  0  0  0  0
   12.5694   -0.4492    0.0000 C   0  0  0  0  0  0  0  0  0  0  0  0
   13.2737   -0.8697    0.0000 C   0  0  0  0  0  0  0  0  0  0  0  0
   13.9931   -0.4674    0.0000 C   0  0  0  0  0  0  0  0  0  0  0  0
   13.2948    0.7769    0.0000 C   0  0  0  0  0  0  0  0  0  0  0  0
   14.0004    0.3549    0.0000 C   0  0  0  0  0  0  0  0  0  0  0  0
   14.7167    0.7494    0.0000 C   0  0  0  0  0  0  0  0  0  0  0  0
   14.7336    1.5714    0.0000 C   0  0  0  0  0  0  0  0  0  0  0  0
   14.0279    1.9974    0.0000 C   0  0  0  0  0  0  0  0  0  0  0  0
   13.3054    1.5973    0.0000 C   0  0  0  0  0  0  0  0  0  0  0  0
   12.5945    2.0252    0.0000 C   0  0  0  0  0  0  0  0  0  0  0  0
   13.2897   -0.0499    0.0000 H   0  0  0  0  0  0  0  0  0  0  0  0
   11.8496   -0.0333    0.0000 C   0  0  0  0  0  0  0  0  0  0  0  0
   10.4219   -0.0333    0.0000 C   0  0  0  0  0  0  0  0  0  0  0  0
   10.4261   -2.5140    0.0000 H   0  0  0  0  0  0  0  0  0  0  0  0
   11.1378   -1.2694    0.0000 H   0  0  0  0  0  0  0  0  0  0  0  0
   12.5613   -1.2736    0.0000 C   0  0  0  0  0  0  0  0  0  0  0  0
   14.0435    2.8255    0.0000 C   0  0  0  0  0  0  0  0  0  0  0  0
    9.2941   -2.8136    0.0000 C   0  0  0  0  0  0  0  0  0  0  0  0
   10.1223   -2.8136    0.0000 C   0  0  0  0  0  0  0  0  0  0  0  0
   14.7131   -0.0582    0.0000 C   0  0  0  0  0  0  0  0  0  0  0  0
   14.7152   -0.8792    0.0000 O   0  0  0  0  0  0  0  0  0  0  0  0
   15.4280    0.3562    0.0000 O   0  0  0  0  0  0  0  0  0  0  0  0
    8.2837   -0.4474    0.0000 O   0  0  0  0  0  0  0  0  0  0  0  0
    8.2855   -2.1029    0.0000 O   0  0  0  0  0  0  0  0  0  0  0  0
    8.4658   -2.8058    0.0000 O   0  0  0  0  0  0  0  0  0  0  0  0
   11.1447   -2.9269    0.0000 O   0  0  0  0  0  0  0  0  0  0  0  0
  7  8  1  0  0  0  0 
  8 10  1  0  0  0  0 
  9 10  1  0  0  0  0 
  3  6  1  0  0  0  0 
  5  4  1  0  0  0  0 
 17 22  1  0  0  0  0 
 18 19  1  0  0  0  0 
 19 20  1  0  0  0  0 
 20 21  1  0  0  0  0 
 21 22  1  0  0  0  0 
  5  6  1  0  0  0  0 
 22 23  1  1  0  0  0 
 17 24  1  1  0  0  0 
  9 12  1  0  0  0  0 
 10 25  1  1  0  0  0 
 10 14  1  0  0  0  0 
  5 26  1  1  0  0  0 
 13 11  2  0  0  0  0 
  6 27  1  6  0  0  0 
 11 12  1  0  0  0  0 
  9 28  1  6  0  0  0 
 13 14  1  0  0  0  0 
 14 29  1  6  0  0  0 
  1  2  1  0  0  0  0 
 21 30  1  6  0  0  0 
  1  4  1  0  0  0  0 
  3 31  1  6  0  0  0 
  2  3  1  0  0  0  0 
  3 32  1  0  0  0  0 
  5  9  1  0  0  0  0 
 18 33  1  1  0  0  0 
 13 17  1  0  0  0  0 
 14 15  1  0  0  0  0 
 33 34  1  0  0  0  0 
 33 35  2  0  0  0  0 
 15 16  1  0  0  0  0 
  1 36  1  6  0  0  0 
 16 18  1  0  0  0  0 
  2 37  1  1  0  0  0 
 17 18  1  0  0  0  0 
 31 38  1  0  0  0  0 
  6  7  1  0  0  0  0 
  7 39  1  1  0  0  0 
M  END
>  <MOLREGNO>
450770

>  <CHEMBLID>
CHEMBL481854

>  <SYNONYMS>
Madecassic acid

>  <MAX_PHASE>
0

>  <MOLWEIGHT>
504.7

>  <ALOGP>
3.27

>  <PSA>
118.22

>  <HBA>
6

>  <HBD>
5

>  <RO5>
1

>  <RTB>
2

>  <RO3>
N

>  <ACD_MOST_APKA>
4.63

>  <ACD_MOST_BPKA>


>  <ACD_LOGP>
4.32

>  <ACD_LOGD>
1.59

>  <AROMATIC_RINGS>
0

>  <HEAVY_ATOMS>
36

>  <QED_WEIGHTED>
.37

>  <HBA_LIPINSKI>
6

>  <HBD_LIPINSKI>
5

>  <NUM_LIPINSKI_RO5_VIOLATIONS>
0

>  <MW_MONOISOTOPIC>
504.3451

>  <MOLECULAR_SPECIES>
ACID

>  <FULL_MOLFORMULA>
C30H48O6

$$$$

  SciTegic01161211222D

 22 24  0  0  0  0            999 V2000
   -4.0992    2.2905    0.0000 C   0  0
   -4.1004    1.4635    0.0000 C   0  0
   -3.3860    1.0509    0.0000 C   0  0
   -3.3878    2.7031    0.0000 C   0  0
   -2.6728    2.2941    0.0000 C   0  0
   -2.6694    1.4615    0.0000 C   0  0
   -1.9506    1.0504    0.0000 C   0  0
   -1.2306    1.4674    0.0000 C   0  0
   -1.2339    2.3000    0.0000 C   0  0
   -1.9574    2.7157    0.0000 O   0  0
   -4.8135    2.7026    0.0000 O   0  0
   -1.9483    0.2259    0.0000 O   0  0
   -0.5153    1.0570    0.0000 C   0  0
   -0.5169    0.2321    0.0000 C   0  0
    0.9065    1.0649    0.0000 C   0  0
    0.1916    1.4715    0.0000 C   0  0
    0.9114    0.2362    0.0000 C   0  0
    0.2009   -0.1802    0.0000 C   0  0
    1.6280   -0.1717    0.0000 O   0  0
   -3.3874    0.2264    0.0000 O   0  0
   -4.8149    1.0518    0.0000 O   0  0
   -5.5286    1.4647    0.0000 C   0  0
  5  6  1  0
  1 11  1  0
  7 12  2  0
  2  3  1  0
  8 13  1  0
  3  6  2  0
 13 14  2  0
 14 18  1  0
  1  2  2  0
 17 15  1  0
  5  4  2  0
 15 16  2  0
 16 13  1  0
 17 18  2  0
  4  1  1  0
  5 10  1  0
  6  7  1  0
 17 19  1  0
  7  8  1  0
  3 20  1  0
  8  9  2  0
  2 21  1  0
  9 10  1  0
 21 22  1  0
M  END
>  <MOLREGNO>
391908

>  <CHEMBLID>
CHEMBL242740

>  <SYNONYMS>
Tectorigenin

>  <MAX_PHASE>
0

>  <MOLWEIGHT>
300.26

>  <ALOGP>
2.12

>  <PSA>
96.22

>  <HBA>
6

>  <HBD>
3

>  <RO5>
0

>  <RTB>
2

>  <RO3>
N

>  <ACD_MOST_APKA>
6.5

>  <ACD_MOST_BPKA>


>  <ACD_LOGP>
2.84

>  <ACD_LOGD>
1.65

>  <AROMATIC_RINGS>
2

>  <HEAVY_ATOMS>
22

>  <QED_WEIGHTED>
.79

>  <HBA_LIPINSKI>
6

>  <HBD_LIPINSKI>
3

>  <NUM_LIPINSKI_RO5_VIOLATIONS>
0

>  <MW_MONOISOTOPIC>
300.0634

>  <MOLECULAR_SPECIES>
ACID

>  <FULL_MOLFORMULA>
C16H12O6

$$$$

  CDK    8/10/10,12:22

 33 36  0  0  0  0  0  0  0  0999 V2000
   -2.3076   -2.5966    0.0000 C   0  0  0  0  0  0  0  0  0  0  0  0
   -2.3087   -3.4231    0.0000 C   0  0  0  0  0  0  0  0  0  0  0  0
   -1.5946   -3.8355    0.0000 C   0  0  0  0  0  0  0  0  0  0  0  0
   -1.5964   -2.1842    0.0000 C   0  0  0  0  0  0  0  0  0  0  0  0
   -0.8818   -2.5929    0.0000 C   0  0  0  0  0  0  0  0  0  0  0  0
   -0.8784   -3.4252    0.0000 C   0  0  0  0  0  0  0  0  0  0  0  0
   -0.1599   -3.8360    0.0000 C   0  0  0  0  0  0  0  0  0  0  0  0
    0.5597   -3.4193    0.0000 C   0  0  0  0  0  0  0  0  0  0  0  0
    0.5562   -2.5870    0.0000 C   0  0  0  0  0  0  0  0  0  0  0  0
   -0.1668   -2.1717    0.0000 O   0  0  0  0  0  0  0  0  0  0  0  0
   -1.5961   -4.6597    0.0000 O   0  0  0  0  0  0  0  0  0  0  0  0
   -0.1577   -4.6602    0.0000 O   0  0  0  0  0  0  0  0  0  0  0  0
    1.2721   -3.8286    0.0000 C   0  0  0  0  0  0  0  0  0  0  0  0
    1.2730   -4.6539    0.0000 C   0  0  0  0  0  0  0  0  0  0  0  0
    1.9869   -5.0640    0.0000 C   0  0  0  0  0  0  0  0  0  0  0  0
    2.7005   -4.6499    0.0000 C   0  0  0  0  0  0  0  0  0  0  0  0
    2.6956   -3.8214    0.0000 C   0  0  0  0  0  0  0  0  0  0  0  0
    1.9810   -3.4152    0.0000 C   0  0  0  0  0  0  0  0  0  0  0  0
    3.4160   -5.0591    0.0000 O   0  0  0  0  0  0  0  0  0  0  0  0
   -3.0228   -3.8346    0.0000 O   0  0  0  0  0  0  0  0  0  0  0  0
   -3.0232   -2.1844    0.0000 O   0  0  0  0  0  0  0  0  0  0  0  0
   -3.0235   -4.6588    0.0000 C   0  0  0  0  0  0  0  0  0  0  0  0
   -3.0329   -1.3592    0.0000 C   0  0  0  0  0  0  0  0  0  0  0  0
   -3.7518   -0.9561    0.0000 C   0  0  0  0  0  0  0  0  0  0  0  0
   -4.4610   -1.3784    0.0000 O   0  0  0  0  0  0  0  0  0  0  0  0
   -3.7615   -0.1309    0.0000 C   0  0  0  0  0  0  0  0  0  0  0  0
   -4.4804    0.2722    0.0000 O   0  0  0  0  0  0  0  0  0  0  0  0
   -3.0543    0.2878    0.0000 C   0  0  0  0  0  0  0  0  0  0  0  0
   -3.0640    1.1130    0.0000 O   0  0  0  0  0  0  0  0  0  0  0  0
   -2.3355   -0.1153    0.0000 C   0  0  0  0  0  0  0  0  0  0  0  0
   -2.3237   -0.9369    0.0000 O   0  0  0  0  0  0  0  0  0  0  0  0
   -1.6263    0.3070    0.0000 C   0  0  0  0  0  0  0  0  0  0  0  0
   -0.9075   -0.0960    0.0000 O   0  0  0  0  0  0  0  0  0  0  0  0
  4  1  1  0  0  0  0 
 16 17  1  0  0  0  0 
  5 10  1  0  0  0  0 
 17 18  2  0  0  0  0 
 18 13  1  0  0  0  0 
  8 13  1  0  0  0  0 
  6  7  1  0  0  0  0 
 16 19  1  0  0  0  0 
  7  8  1  0  0  0  0 
  2 20  1  0  0  0  0 
  8  9  2  0  0  0  0 
  1 21  1  0  0  0  0 
  9 10  1  0  0  0  0 
 20 22  1  0  0  0  0 
  5  6  1  0  0  0  0 
  3 11  1  0  0  0  0 
  7 12  2  0  0  0  0 
  2  3  1  0  0  0  0 
  3  6  2  0  0  0  0 
 13 14  2  0  0  0  0 
  1  2  2  0  0  0  0 
 14 15  1  0  0  0  0 
  5  4  2  0  0  0  0 
 15 16  2  0  0  0  0 
 23 21  1  1  0  0  0 
 23 24  1  0  0  0  0 
 24 25  1  6  0  0  0 
 24 26  1  0  0  0  0 
 26 27  1  1  0  0  0 
 26 28  1  0  0  0  0 
 28 29  1  6  0  0  0 
 28 30  1  0  0  0  0 
 30 31  1  0  0  0  0 
 30 32  1  1  0  0  0 
 32 33  1  0  0  0  0 
 23 31  1  0  0  0  0 
M  END
>  <MOLREGNO>
445848

>  <CHEMBLID>
CHEMBL520214

>  <SYNONYMS>
Tectoridin

>  <MAX_PHASE>
0

>  <MOLWEIGHT>
462.4

>  <ALOGP>
.19

>  <PSA>
175.37

>  <HBA>
11

>  <HBD>
6

>  <RO5>
2

>  <RTB>
5

>  <RO3>
N

>  <ACD_MOST_APKA>
6.1

>  <ACD_MOST_BPKA>


>  <ACD_LOGP>
.54

>  <ACD_LOGD>
-.77

>  <AROMATIC_RINGS>
2

>  <HEAVY_ATOMS>
33

>  <QED_WEIGHTED>
.36

>  <HBA_LIPINSKI>
11

>  <HBD_LIPINSKI>
6

>  <NUM_LIPINSKI_RO5_VIOLATIONS>
2

>  <MW_MONOISOTOPIC>
462.1162

>  <MOLECULAR_SPECIES>
ACID

>  <FULL_MOLFORMULA>
C22H22O11

$$$$

  SciTegic01161211222D

 22 22  0  0  0  0            999 V2000
    1.5171  -11.3162    0.0000 C   0  0
    5.1045  -11.0653    0.0000 C   0  0
    1.4790  -12.1386    0.0000 C   0  0
    4.3722  -11.4451    0.0000 N   0  0
    2.2494  -10.9363    0.0000 C   0  0
    5.1407  -10.2391    0.0000 O   0  0
    2.1752  -12.5848    0.0000 C   0  0
    9.4161  -11.1709    0.0000 C   0  0
    8.6898  -11.5584    0.0000 C   0  0
    2.9437  -11.3788    0.0000 C   0  0
    3.6760  -10.9989    0.0000 C   0  0
    2.9075  -12.2049    0.0000 C   0  0
    0.8228  -10.8737    0.0000 O   0  0
    0.7504  -12.5166    0.0000 O   0  0
    5.7988  -11.5078    0.0000 C   0  0
   10.1472  -11.5426    0.0000 C   0  0
    7.9608  -11.1682    0.0000 C   0  0
    0.8571  -10.0439    0.0000 C   0  0
    6.5311  -11.1279    0.0000 C   0  0
    7.2295  -11.5421    0.0000 C   0  0
   10.1971  -12.3661    0.0000 C   0  0
   10.8334  -11.0877    0.0000 C   0  0
  2  4  1  0
  3  1  1  0
  4 11  1  0
  5  1  2  0
  6  2  2  0
  7  3  2  0
  8  9  2  0
  9 17  1  0
 10  5  1  0
 11 10  1  0
 12 10  2  0
 13  1  1  0
 14  3  1  0
 15  2  1  0
 16  8  1  0
 17 20  1  0
 18 13  1  0
 19 15  1  0
 20 19  1  0
 21 16  1  0
 22 16  1  0
  7 12  1  0
M  END
>  <MOLREGNO>
91783

>  <CHEMBLID>
CHEMBL294199

>  <SYNONYMS>
CAPSAICIN | Qutenza

>  <MAX_PHASE>
4

>  <MOLWEIGHT>
305.41

>  <ALOGP>
3.91

>  <PSA>
58.56

>  <HBA>
3

>  <HBD>
2

>  <RO5>
0

>  <RTB>
9

>  <RO3>
N

>  <ACD_MOST_APKA>
9.76

>  <ACD_MOST_BPKA>


>  <ACD_LOGP>
3.22

>  <ACD_LOGD>
3.22

>  <AROMATIC_RINGS>
1

>  <HEAVY_ATOMS>
22

>  <QED_WEIGHTED>
.54

>  <HBA_LIPINSKI>
4

>  <HBD_LIPINSKI>
2

>  <NUM_LIPINSKI_RO5_VIOLATIONS>
0

>  <MW_MONOISOTOPIC>
305.1991

>  <MOLECULAR_SPECIES>
NEUTRAL

>  <FULL_MOLFORMULA>
C18H27NO3

$$$$

          11280715072D 1   1.00000     0.00000     0

 22 22  0     0  0            999 V2000
    3.0042   -2.1917    0.0000 C   0  0  0  0  0  0           0  0  0
    2.9917    0.2083    0.0000 C   0  0  0  0  0  0           0  0  0
    2.4792   -2.4917    0.0000 C   0  0  0  0  0  0           0  0  0
    3.0000   -0.3917    0.0000 N   0  0  0  0  0  0           0  0  0
    3.0042   -1.5917    0.0000 C   0  0  0  0  0  0           0  0  0
    2.4750    0.5083    0.0000 O   0  0  0  0  0  0           0  0  0
    1.9667   -2.1917    0.0000 C   0  0  0  0  0  0           0  0  0
    2.4792   -1.2917    0.0000 C   0  0  0  0  0  0           0  0  0
    2.4792   -0.6917    0.0000 C   0  0  0  0  0  0           0  0  0
    1.9667   -1.5917    0.0000 C   0  0  0  0  0  0           0  0  0
    3.5250   -2.4917    0.0000 O   0  0  0  0  0  0           0  0  0
    2.4792   -3.0917    0.0000 O   0  0  0  0  0  0           0  0  0
    3.5167    0.5125    0.0000 C   0  0  0  0  0  0           0  0  0
    6.6292    0.5250    0.0000 C   0  0  3  0  0  0           0  0  0
    3.5292   -3.0917    0.0000 C   0  0  0  0  0  0           0  0  0
    4.0375    0.2125    0.0000 C   0  0  0  0  0  0           0  0  0
    6.1125    0.2208    0.0000 C   0  0  0  0  0  0           0  0  0
    5.5917    0.5208    0.0000 C   0  0  0  0  0  0           0  0  0
    5.0750    0.2208    0.0000 C   0  0  0  0  0  0           0  0  0
    4.5542    0.5208    0.0000 C   0  0  0  0  0  0           0  0  0
    7.1542    0.2250    0.0000 C   0  0  0  0  0  0           0  0  0
    6.6292    1.1250    0.0000 C   0  0  0  0  0  0           0  0  0
  2  4  1  0     0  0
  3  1  2  0     0  0
  4  9  1  0     0  0
  5  1  1  0     0  0
  6  2  2  0     0  0
  7  3  1  0     0  0
  8  5  2  0     0  0
  9  8  1  0     0  0
 10  8  1  0     0  0
 11  1  1  0     0  0
 12  3  1  0     0  0
 13  2  1  0     0  0
 14 17  1  0     0  0
 15 11  1  0     0  0
 16 13  1  0     0  0
 17 18  1  0     0  0
 18 19  1  0     0  0
 19 20  1  0     0  0
 20 16  1  0     0  0
 21 14  1  0     0  0
 22 14  1  0     0  0
 10  7  2  0     0  0
M  END
>  <MOLREGNO>
124942

>  <CHEMBLID>
CHEMBL311158

>  <SYNONYMS>
Dihydrocapsaicin

>  <MAX_PHASE>
0

>  <MOLWEIGHT>
307.43

>  <ALOGP>
4.35

>  <PSA>
58.56

>  <HBA>
3

>  <HBD>
2

>  <RO5>
0

>  <RTB>
10

>  <RO3>
N

>  <ACD_MOST_APKA>
9.77

>  <ACD_MOST_BPKA>


>  <ACD_LOGP>
3.56

>  <ACD_LOGD>
3.55

>  <AROMATIC_RINGS>
1

>  <HEAVY_ATOMS>
22

>  <QED_WEIGHTED>
.63

>  <HBA_LIPINSKI>
4

>  <HBD_LIPINSKI>
2

>  <NUM_LIPINSKI_RO5_VIOLATIONS>
0

>  <MW_MONOISOTOPIC>
307.2147

>  <MOLECULAR_SPECIES>
NEUTRAL

>  <FULL_MOLFORMULA>
C18H29NO3

$$$$

  CDK    10/7/09,10:42

 48 54  0  0  0  0  0  0  0  0999 V2000
    6.9940   -1.3138    0.0000 C   0  0  0  0  0  0  0  0  0  0  0  0
    7.7133   -0.9004    0.0000 C   0  0  0  0  0  0  0  0  0  0  0  0
    7.7101   -0.0693    0.0000 C   0  0  0  0  0  0  0  0  0  0  0  0
    6.9920    0.3395    0.0000 C   0  0  0  0  0  0  0  0  0  0  0  0
    6.2809   -0.9009    0.0000 C   0  0  0  0  0  0  0  0  0  0  0  0
    6.2852   -0.0733    0.0000 C   0  0  0  0  0  0  0  0  0  0  0  0
    5.5745    0.3420    0.0000 C   0  0  0  0  0  0  0  0  0  0  0  0
    4.8551   -0.0659    0.0000 C   0  0  0  0  0  0  0  0  0  0  0  0
    4.8508   -0.8935    0.0000 N   0  0  0  0  0  0  0  0  0  0  0  0
    5.5660   -1.3133    0.0000 C   0  0  0  0  0  0  0  0  0  0  0  0
    4.1338   -1.3016    0.0000 C   0  0  0  0  0  0  0  0  0  0  0  0
    8.4225    0.3467    0.0000 O   0  0  0  0  0  0  0  0  0  0  0  0
    8.4185    1.1717    0.0000 C   0  0  0  0  0  0  0  0  0  0  0  0
    8.4281   -1.3122    0.0000 O   0  0  0  0  0  0  0  0  0  0  0  0
    9.1422   -0.8990    0.0000 C   0  0  0  0  0  0  0  0  0  0  0  0
   10.5680   -0.0776    0.0000 C   0  0  0  0  0  0  0  0  0  0  0  0
    9.8481    0.3342    0.0000 C   0  0  0  0  0  0  0  0  0  0  0  0
    9.1374   -0.0806    0.0000 C   0  0  0  0  0  0  0  0  0  0  0  0
    9.1301    0.7471    0.0000 O   0  0  0  0  0  0  0  0  0  0  0  0
    9.8444    1.1592    0.0000 O   0  0  0  0  0  0  0  0  0  0  0  0
   10.5571    1.5749    0.0000 C   0  0  0  0  0  0  0  0  0  0  0  0
    9.3409    1.5446    0.0000 C   0  0  0  0  0  0  0  0  0  0  0  0
   10.5683   -0.9034    0.0000 C   0  0  0  0  0  0  0  0  0  0  0  0
    9.8509   -1.3176    0.0000 C   0  0  0  0  0  0  0  0  0  0  0  0
    9.8509   -2.1414    0.0000 C   0  0  0  0  0  0  0  0  0  0  0  0
   10.5666   -2.5572    0.0000 N   0  0  0  0  0  0  0  0  0  0  0  0
   11.2840   -2.1430    0.0000 C   0  0  0  0  0  0  0  0  0  0  0  0
   11.2856   -1.3131    0.0000 C   0  0  0  0  0  0  0  0  0  0  0  0
   10.5654   -3.3822    0.0000 C   0  0  0  0  0  0  0  0  0  0  0  0
    5.5623   -2.1390    0.0000 C   0  0  0  0  0  0  0  0  0  0  0  0
    6.0114   -2.8239    0.0000 C   0  0  0  0  0  0  0  0  0  0  0  0
    5.6398   -3.5551    0.0000 C   0  0  0  0  0  0  0  0  0  0  0  0
    6.0883   -4.2398    0.0000 C   0  0  0  0  0  0  0  0  0  0  0  0
    6.9069   -4.1937    0.0000 C   0  0  0  0  0  0  0  0  0  0  0  0
    7.2752   -3.4572    0.0000 C   0  0  0  0  0  0  0  0  0  0  0  0
    6.8246   -2.7756    0.0000 C   0  0  0  0  0  0  0  0  0  0  0  0
    7.3603   -4.8829    0.0000 O   0  0  0  0  0  0  0  0  0  0  0  0
    9.1358   -2.5528    0.0000 C   0  0  0  0  0  0  0  0  0  0  0  0
    9.1346   -3.3778    0.0000 C   0  0  0  0  0  0  0  0  0  0  0  0
    8.4208   -3.7855    0.0000 C   0  0  0  0  0  0  0  0  0  0  0  0
    8.4192   -4.6097    0.0000 C   0  0  0  0  0  0  0  0  0  0  0  0
    9.1337   -5.0241    0.0000 C   0  0  0  0  0  0  0  0  0  0  0  0
    9.8511   -4.6082    0.0000 C   0  0  0  0  0  0  0  0  0  0  0  0
    9.8491   -3.7852    0.0000 C   0  0  0  0  0  0  0  0  0  0  0  0
    9.1336   -5.8491    0.0000 O   0  0  0  0  0  0  0  0  0  0  0  0
    9.8480   -6.2616    0.0000 C   0  0  0  0  0  0  0  0  0  0  0  0
    9.1347   -1.7279    0.0000 H   0  0  0  0  0  0  0  0  0  0  0  0
    6.1463   -1.8929    0.0000 H   0  0  0  0  0  0  0  0  0  0  0  0
 23 24  1  0  0  0  0 
  5  6  2  0  0  0  0 
  9 11  1  0  0  0  0 
  1  2  2  0  0  0  0 
  3 12  1  0  0  0  0 
  5  1  1  0  0  0  0 
 12 13  1  0  0  0  0 
 23 28  1  0  0  0  0 
 24 25  1  0  0  0  0 
 25 26  1  0  0  0  0 
 26 27  1  0  0  0  0 
 27 28  1  0  0  0  0 
  2  3  1  0  0  0  0 
 26 29  1  0  0  0  0 
  2 14  1  0  0  0  0 
 10 30  1  0  0  0  0 
 30 31  1  0  0  0  0 
 14 15  1  0  0  0  0 
 31 32  2  0  0  0  0 
 15 24  2  0  0  0  0 
 32 33  1  0  0  0  0 
  3  4  2  0  0  0  0 
 33 34  2  0  0  0  0 
 23 16  2  0  0  0  0 
 34 35  1  0  0  0  0 
  4  6  1  0  0  0  0 
 35 36  2  0  0  0  0 
 36 31  1  0  0  0  0 
 16 17  1  0  0  0  0 
 34 37  1  0  0  0  0 
  5 10  1  0  0  0  0 
 25 38  1  0  0  0  0 
 17 18  2  0  0  0  0 
 38 39  1  0  0  0  0 
 18 15  1  0  0  0  0 
 39 40  2  0  0  0  0 
  6  7  1  0  0  0  0 
 40 41  1  0  0  0  0 
 18 19  1  0  0  0  0 
 41 42  2  0  0  0  0 
  7  8  1  0  0  0  0 
 42 43  1  0  0  0  0 
 17 20  1  0  0  0  0 
 43 44  2  0  0  0  0 
 44 39  1  0  0  0  0 
  8  9  1  0  0  0  0 
 42 45  1  0  0  0  0 
 37 41  1  0  0  0  0 
 20 21  1  0  0  0  0 
 45 46  1  0  0  0  0 
  9 10  1  0  0  0  0 
 25 47  1  6  0  0  0 
 19 22  1  0  0  0  0 
 10 48  1  1  0  0  0 
M  END
>  <MOLREGNO>
297097

>  <CHEMBLID>
CHEMBL176045

>  <SYNONYMS>
NSC-77037

>  <MAX_PHASE>
0

>  <MOLWEIGHT>
622.75

>  <ALOGP>
7.22

>  <PSA>
61.86

>  <HBA>
8

>  <HBD>
0

>  <RO5>
2

>  <RTB>
4

>  <RO3>
N

>  <ACD_MOST_APKA>


>  <ACD_MOST_BPKA>
7.7

>  <ACD_LOGP>
3.23

>  <ACD_LOGD>
2.57

>  <AROMATIC_RINGS>
4

>  <HEAVY_ATOMS>
46

>  <QED_WEIGHTED>
.24

>  <HBA_LIPINSKI>
8

>  <HBD_LIPINSKI>
0

>  <NUM_LIPINSKI_RO5_VIOLATIONS>
1

>  <MW_MONOISOTOPIC>
622.3043

>  <MOLECULAR_SPECIES>
NEUTRAL

>  <FULL_MOLFORMULA>
C38H42N2O6

$$$$

  CDK    9/16/09,9:19

 47 53  0  0  0  0  0  0  0  0999 V2000
    4.5835   -7.0239    0.0000 C   0  0  0  0  0  0  0  0  0  0  0  0
    5.3045   -7.4225    0.0000 N   0  0  0  0  0  0  0  0  0  0  0  0
    6.0073   -6.9983    0.0000 C   0  0  0  0  0  0  0  0  0  0  0  0
    4.5616   -6.1991    0.0000 C   0  0  0  0  0  0  0  0  0  0  0  0
    5.2737   -5.7754    0.0000 C   0  0  0  0  0  0  0  0  0  0  0  0
    5.9947   -6.1768    0.0000 C   0  0  0  0  0  0  0  0  0  0  0  0
    6.6989   -5.7504    0.0000 C   0  0  0  0  0  0  0  0  0  0  0  0
    6.6853   -4.9285    0.0000 C   0  0  0  0  0  0  0  0  0  0  0  0
    5.9586   -4.5326    0.0000 C   0  0  0  0  0  0  0  0  0  0  0  0
    5.2596   -4.9605    0.0000 C   0  0  0  0  0  0  0  0  0  0  0  0
    5.9438   -3.7070    0.0000 O   0  0  0  0  0  0  0  0  0  0  0  0
    5.2149   -3.3060    0.0000 C   0  0  0  0  0  0  0  0  0  0  0  0
    5.3226   -8.2532    0.0000 C   0  0  0  0  0  0  0  0  0  0  0  0
    6.7329   -7.3974    0.0000 C   0  0  0  0  0  0  0  0  0  0  0  0
    6.7326   -8.2235    0.0000 C   0  0  0  0  0  0  0  0  0  0  0  0
    6.0166   -8.6333    0.0000 C   0  0  0  0  0  0  0  0  0  0  0  0
    6.0151   -9.4630    0.0000 C   0  0  0  0  0  0  0  0  0  0  0  0
    6.7301   -9.8776    0.0000 C   0  0  0  0  0  0  0  0  0  0  0  0
    7.4510   -9.4569    0.0000 C   0  0  0  0  0  0  0  0  0  0  0  0
    7.4455   -8.6350    0.0000 C   0  0  0  0  0  0  0  0  0  0  0  0
    6.7323  -10.7027    0.0000 O   0  0  0  0  0  0  0  0  0  0  0  0
    6.0159  -11.1180    0.0000 C   0  0  0  0  0  0  0  0  0  0  0  0
    8.1680   -9.8695    0.0000 O   0  0  0  0  0  0  0  0  0  0  0  0
    8.8807   -9.4541    0.0000 C   0  0  0  0  0  0  0  0  0  0  0  0
   11.7154   -6.1399    0.0000 C   0  0  0  0  0  0  0  0  0  0  0  0
   11.7240   -6.9636    0.0000 N   0  0  0  0  0  0  0  0  0  0  0  0
   11.0149   -7.3771    0.0000 C   0  0  0  0  0  0  0  0  0  0  0  0
   11.0019   -5.7253    0.0000 C   0  0  0  0  0  0  0  0  0  0  0  0
   10.2949   -6.1477    0.0000 C   0  0  0  0  0  0  0  0  0  0  0  0
   10.3009   -6.9716    0.0000 C   0  0  0  0  0  0  0  0  0  0  0  0
    9.5899   -7.3872    0.0000 C   0  0  0  0  0  0  0  0  0  0  0  0
    8.8756   -6.9828    0.0000 C   0  0  0  0  0  0  0  0  0  0  0  0
    8.8699   -6.1557    0.0000 C   0  0  0  0  0  0  0  0  0  0  0  0
    9.5804   -5.7399    0.0000 C   0  0  0  0  0  0  0  0  0  0  0  0
    8.1519   -5.7432    0.0000 O   0  0  0  0  0  0  0  0  0  0  0  0
    8.1586   -7.3994    0.0000 O   0  0  0  0  0  0  0  0  0  0  0  0
   12.4411   -7.3754    0.0000 C   0  0  0  0  0  0  0  0  0  0  0  0
   11.0202   -8.2058    0.0000 C   0  0  0  0  0  0  0  0  0  0  0  0
   10.3065   -8.6239    0.0000 C   0  0  0  0  0  0  0  0  0  0  0  0
   10.3131   -9.4438    0.0000 C   0  0  0  0  0  0  0  0  0  0  0  0
    9.5986   -9.8655    0.0000 C   0  0  0  0  0  0  0  0  0  0  0  0
    8.8802   -8.6217    0.0000 C   0  0  0  0  0  0  0  0  0  0  0  0
    9.5936   -8.2094    0.0000 C   0  0  0  0  0  0  0  0  0  0  0  0
    7.3912   -4.5011    0.0000 O   0  0  0  0  0  0  0  0  0  0  0  0
   11.7265   -7.7885    0.0000 H   0  0  0  0  0  0  0  0  0  0  0  0
    6.0008   -7.8218    0.0000 H   0  0  0  0  0  0  0  0  0  0  0  0
    8.1501   -4.9181    0.0000 C   0  0  0  0  0  0  0  0  0  0  0  0
  2  3  1  0  0  0  0 
  3  6  1  0  0  0  0 
  5  4  1  0  0  0  0 
  5  6  2  0  0  0  0 
  6  7  1  0  0  0  0 
  7  8  2  0  0  0  0 
  8  9  1  0  0  0  0 
  9 10  2  0  0  0  0 
 10  5  1  0  0  0  0 
  9 11  1  0  0  0  0 
 11 12  1  0  0  0  0 
  2 13  1  0  0  0  0 
  3 14  1  0  0  0  0 
 14 15  1  0  0  0  0 
 15 16  2  0  0  0  0 
 16 17  1  0  0  0  0 
 17 18  2  0  0  0  0 
 18 19  1  0  0  0  0 
 19 20  2  0  0  0  0 
 20 15  1  0  0  0  0 
 18 21  1  0  0  0  0 
 21 22  1  0  0  0  0 
 19 23  1  0  0  0  0 
 23 24  1  0  0  0  0 
 25 26  1  0  0  0  0 
 25 28  1  0  0  0  0 
 26 27  1  0  0  0  0 
 27 30  1  0  0  0  0 
 29 28  1  0  0  0  0 
 29 30  2  0  0  0  0 
 30 31  1  0  0  0  0 
 31 32  2  0  0  0  0 
 32 33  1  0  0  0  0 
 33 34  2  0  0  0  0 
 34 29  1  0  0  0  0 
 33 35  1  0  0  0  0 
 32 36  1  0  0  0  0 
 26 37  1  0  0  0  0 
 27 38  1  0  0  0  0 
 38 39  1  0  0  0  0 
 39 40  2  0  0  0  0 
 40 41  1  0  0  0  0 
 41 24  2  0  0  0  0 
 24 42  1  0  0  0  0 
 42 43  2  0  0  0  0 
 43 39  1  0  0  0  0 
  8 44  1  0  0  0  0 
  7 36  1  0  0  0  0 
 27 45  1  6  0  0  0 
  1  2  1  0  0  0  0 
  3 46  1  1  0  0  0 
  1  4  1  0  0  0  0 
 35 47  1  0  0  0  0 
M  END
>  <MOLREGNO>
443012

>  <CHEMBLID>
CHEMBL504256

>  <SYNONYMS>
NSC-77036

>  <MAX_PHASE>
0

>  <MOLWEIGHT>
608.72

>  <ALOGP>
6.99

>  <PSA>
72.86

>  <HBA>
8

>  <HBD>
1

>  <RO5>
2

>  <RTB>
3

>  <RO3>
N

>  <ACD_MOST_APKA>
9.38

>  <ACD_MOST_BPKA>
7.71

>  <ACD_LOGP>
3.35

>  <ACD_LOGD>
2.6

>  <AROMATIC_RINGS>
4

>  <HEAVY_ATOMS>
45

>  <QED_WEIGHTED>
.27

>  <HBA_LIPINSKI>
8

>  <HBD_LIPINSKI>
1

>  <NUM_LIPINSKI_RO5_VIOLATIONS>
1

>  <MW_MONOISOTOPIC>
608.2886

>  <MOLECULAR_SPECIES>
NEUTRAL

>  <FULL_MOLFORMULA>
C37H40N2O6

$$$$

  CDK    9/16/09,9:19

 42 47  0  0  0  0  0  0  0  0999 V2000
    5.7077   -1.9197    0.0000 C   0  0  0  0  0  0  0  0  0  0  0  0
    5.7065   -2.7466    0.0000 C   0  0  0  0  0  0  0  0  0  0  0  0
    6.4209   -3.1591    0.0000 C   0  0  0  0  0  0  0  0  0  0  0  0
    6.4191   -1.5071    0.0000 C   0  0  0  0  0  0  0  0  0  0  0  0
    7.1341   -1.9161    0.0000 C   0  0  0  0  0  0  0  0  0  0  0  0
    7.1375   -2.7486    0.0000 C   0  0  0  0  0  0  0  0  0  0  0  0
    7.8563   -3.1596    0.0000 C   0  0  0  0  0  0  0  0  0  0  0  0
    8.5763   -2.7427    0.0000 C   0  0  0  0  0  0  0  0  0  0  0  0
    8.5729   -1.9102    0.0000 C   0  0  0  0  0  0  0  0  0  0  0  0
    7.8495   -1.4945    0.0000 O   0  0  0  0  0  0  0  0  0  0  0  0
    6.4195   -3.9837    0.0000 O   0  0  0  0  0  0  0  0  0  0  0  0
    4.9936   -1.5076    0.0000 O   0  0  0  0  0  0  0  0  0  0  0  0
    9.2856   -1.4956    0.0000 C   0  0  0  0  0  0  0  0  0  0  0  0
   10.0001   -1.9078    0.0000 C   0  0  0  0  0  0  0  0  0  0  0  0
   10.7124   -1.4940    0.0000 C   0  0  0  0  0  0  0  0  0  0  0  0
   10.7103   -0.6686    0.0000 C   0  0  0  0  0  0  0  0  0  0  0  0
    9.9900   -0.2587    0.0000 C   0  0  0  0  0  0  0  0  0  0  0  0
    9.2806   -0.6749    0.0000 C   0  0  0  0  0  0  0  0  0  0  0  0
   11.4226   -0.2532    0.0000 O   0  0  0  0  0  0  0  0  0  0  0  0
    9.9845    0.5658    0.0000 O   0  0  0  0  0  0  0  0  0  0  0  0
    9.2914   -3.1530    0.0000 O   0  0  0  0  0  0  0  0  0  0  0  0
    6.4208   -0.0664    0.0000 C   0  0  0  0  0  0  0  0  0  0  0  0
    4.2711    1.1743    0.0000 C   0  0  0  0  0  0  0  0  0  0  0  0
    4.2699    0.3475    0.0000 C   0  0  0  0  0  0  0  0  0  0  0  0
    4.9843   -0.0652    0.0000 C   0  0  0  0  0  0  0  0  0  0  0  0
    4.9825    1.5869    0.0000 C   0  0  0  0  0  0  0  0  0  0  0  0
    5.6975    1.1780    0.0000 C   0  0  0  0  0  0  0  0  0  0  0  0
    5.7008    0.3454    0.0000 C   0  0  0  0  0  0  0  0  0  0  0  0
    7.1396    0.3513    0.0000 C   0  0  0  0  0  0  0  0  0  0  0  0
    7.1362    1.1839    0.0000 C   0  0  0  0  0  0  0  0  0  0  0  0
    6.4128    1.5996    0.0000 O   0  0  0  0  0  0  0  0  0  0  0  0
    4.9829   -0.8897    0.0000 O   0  0  0  0  0  0  0  0  0  0  0  0
    3.5569    1.5865    0.0000 O   0  0  0  0  0  0  0  0  0  0  0  0
    7.8490    1.5984    0.0000 C   0  0  0  0  0  0  0  0  0  0  0  0
    8.5635    1.1862    0.0000 C   0  0  0  0  0  0  0  0  0  0  0  0
    9.2757    1.6000    0.0000 C   0  0  0  0  0  0  0  0  0  0  0  0
    9.2736    2.4254    0.0000 C   0  0  0  0  0  0  0  0  0  0  0  0
    8.5534    2.8352    0.0000 C   0  0  0  0  0  0  0  0  0  0  0  0
    7.8440    2.4192    0.0000 C   0  0  0  0  0  0  0  0  0  0  0  0
    9.9859    2.8408    0.0000 O   0  0  0  0  0  0  0  0  0  0  0  0
    8.5479    3.6597    0.0000 O   0  0  0  0  0  0  0  0  0  0  0  0
    7.8548   -0.0591    0.0000 O   0  0  0  0  0  0  0  0  0  0  0  0
 17 20  1  0  0  0  0 
  8  9  1  0  0  0  0 
  8 21  1  6  0  0  0 
  9 10  1  0  0  0  0 
 22  4  1  1  0  0  0 
  5  6  1  0  0  0  0 
  3 11  1  0  0  0  0 
 23 24  2  0  0  0  0 
 24 25  1  0  0  0  0 
 25 28  2  0  0  0  0 
  1 12  1  0  0  0  0 
 27 26  2  0  0  0  0 
 26 23  1  0  0  0  0 
 27 28  1  0  0  0  0 
  2  3  1  0  0  0  0 
  9 13  1  6  0  0  0 
  3  6  2  0  0  0  0 
 13 14  2  0  0  0  0 
  1  2  2  0  0  0  0 
 27 31  1  0  0  0  0 
 28 22  1  0  0  0  0 
 22 29  1  0  0  0  0 
 29 30  1  0  0  0  0 
 30 31  1  0  0  0  0 
 14 15  1  0  0  0  0 
 25 32  1  0  0  0  0 
  5  4  2  0  0  0  0 
 23 33  1  0  0  0  0 
 15 16  2  0  0  0  0 
 30 34  1  6  0  0  0 
  4  1  1  0  0  0  0 
 34 35  2  0  0  0  0 
 16 17  1  0  0  0  0 
 35 36  1  0  0  0  0 
  5 10  1  0  0  0  0 
 36 37  2  0  0  0  0 
 17 18  2  0  0  0  0 
 37 38  1  0  0  0  0 
 18 13  1  0  0  0  0 
 38 39  2  0  0  0  0 
 39 34  1  0  0  0  0 
  6  7  1  0  0  0  0 
 37 40  1  0  0  0  0 
 16 19  1  0  0  0  0 
 38 41  1  0  0  0  0 
  7  8  1  0  0  0  0 
 29 42  1  6  0  0  0 
M  END
>  <MOLREGNO>
56078

>  <CHEMBLID>
CHEMBL38714

>  <SYNONYMS>
Procyanidin B2

>  <MAX_PHASE>
0

>  <MOLWEIGHT>
578.52

>  <ALOGP>
3.57

>  <PSA>
220.75

>  <HBA>
12

>  <HBD>
10

>  <RO5>
3

>  <RTB>
3

>  <RO3>
N

>  <ACD_MOST_APKA>
9.29

>  <ACD_MOST_BPKA>


>  <ACD_LOGP>
.98

>  <ACD_LOGD>
.98

>  <AROMATIC_RINGS>
4

>  <HEAVY_ATOMS>
42

>  <QED_WEIGHTED>
.16

>  <HBA_LIPINSKI>
12

>  <HBD_LIPINSKI>
10

>  <NUM_LIPINSKI_RO5_VIOLATIONS>
2

>  <MW_MONOISOTOPIC>
578.1424

>  <MOLECULAR_SPECIES>
NEUTRAL

>  <FULL_MOLFORMULA>
C30H26O12

$$$$

  CDK    6/4/10,11:42

 42 47  0  0  0  0  0  0  0  0999 V2000
   -1.3181    0.6834    0.0000 C   0  0  0  0  0  0  0  0  0  0  0  0
   -1.3193   -0.1440    0.0000 C   0  0  0  0  0  0  0  0  0  0  0  0
   -0.6044   -0.5569    0.0000 C   0  0  0  0  0  0  0  0  0  0  0  0
   -0.6062    1.0961    0.0000 C   0  0  0  0  0  0  0  0  0  0  0  0
    0.1091    0.6870    0.0000 C   0  0  0  0  0  0  0  0  0  0  0  0
    0.1126   -0.1461    0.0000 C   0  0  0  0  0  0  0  0  0  0  0  0
    0.8317   -0.5574    0.0000 O   0  0  0  0  0  0  0  0  0  0  0  0
    1.5521   -0.1402    0.0000 C   0  0  0  0  0  0  0  0  0  0  0  0
    1.5487    0.6929    0.0000 C   0  0  0  0  0  0  0  0  0  0  0  0
    0.8249    1.1088    0.0000 C   0  0  0  0  0  0  0  0  0  0  0  0
   -0.6087    1.9211    0.0000 O   0  0  0  0  0  0  0  0  0  0  0  0
   -2.0341   -0.5559    0.0000 O   0  0  0  0  0  0  0  0  0  0  0  0
    2.2619    1.1076    0.0000 O   0  0  0  0  0  0  0  0  0  0  0  0
    2.2652   -0.5500    0.0000 C   0  0  0  0  0  0  0  0  0  0  0  0
    2.2661   -1.3761    0.0000 C   0  0  0  0  0  0  0  0  0  0  0  0
    2.9809   -1.7866    0.0000 C   0  0  0  0  0  0  0  0  0  0  0  0
    3.6952   -1.3721    0.0000 C   0  0  0  0  0  0  0  0  0  0  0  0
    3.6903   -0.5428    0.0000 C   0  0  0  0  0  0  0  0  0  0  0  0
    2.9750   -0.1361    0.0000 C   0  0  0  0  0  0  0  0  0  0  0  0
    4.4022   -0.1258    0.0000 O   0  0  0  0  0  0  0  0  0  0  0  0
    4.4114   -1.7817    0.0000 O   0  0  0  0  0  0  0  0  0  0  0  0
   -0.6063   -1.3843    0.0000 C   0  0  0  0  0  0  0  0  0  0  0  0
   -0.6149   -3.0333    0.0000 O   0  0  0  0  0  0  0  0  0  0  0  0
    0.1021   -2.6233    0.0000 C   0  0  0  0  0  0  0  0  0  0  0  0
    0.1073   -1.7957    0.0000 C   0  0  0  0  0  0  0  0  0  0  0  0
   -1.3268   -2.6157    0.0000 C   0  0  0  0  0  0  0  0  0  0  0  0
   -1.3233   -1.7946    0.0000 C   0  0  0  0  0  0  0  0  0  0  0  0
   -2.0315   -1.3829    0.0000 C   0  0  0  0  0  0  0  0  0  0  0  0
   -2.7437   -1.7911    0.0000 C   0  0  0  0  0  0  0  0  0  0  0  0
   -2.7432   -2.6153    0.0000 C   0  0  0  0  0  0  0  0  0  0  0  0
   -2.0344   -3.0233    0.0000 C   0  0  0  0  0  0  0  0  0  0  0  0
   -1.4500   -0.7917    0.0000 O   0  0  0  0  0  0  0  0  0  0  0  0
   -3.4573   -3.0285    0.0000 O   0  0  0  0  0  0  0  0  0  0  0  0
    0.8229   -1.3852    0.0000 O   0  0  0  0  0  0  0  0  0  0  0  0
    0.8111   -3.0374    0.0000 C   0  0  0  0  0  0  0  0  0  0  0  0
    0.8055   -3.8635    0.0000 C   0  0  0  0  0  0  0  0  0  0  0  0
    1.5170   -4.2796    0.0000 C   0  0  0  0  0  0  0  0  0  0  0  0
    2.2345   -3.8708    0.0000 C   0  0  0  0  0  0  0  0  0  0  0  0
    2.2362   -3.0415    0.0000 C   0  0  0  0  0  0  0  0  0  0  0  0
    1.5241   -2.6291    0.0000 C   0  0  0  0  0  0  0  0  0  0  0  0
    2.9513   -2.6302    0.0000 O   0  0  0  0  0  0  0  0  0  0  0  0
    2.9474   -4.2860    0.0000 O   0  0  0  0  0  0  0  0  0  0  0  0
 18 20  1  0  0  0  0 
  8  9  1  0  0  0  0 
 17 21  1  0  0  0  0 
 22 27  1  0  0  0  0 
  9 10  1  0  0  0  0 
  5  6  1  0  0  0  0 
  4 11  1  0  0  0  0 
 22 25  1  0  0  0  0 
 26 23  1  0  0  0  0 
 23 24  1  0  0  0  0 
 24 25  1  0  0  0  0 
 22  3  1  6  0  0  0 
  2 12  1  0  0  0  0 
  2  3  1  0  0  0  0 
 26 27  2  0  0  0  0 
  9 13  1  6  0  0  0 
 27 28  1  0  0  0  0 
  3  6  2  0  0  0  0 
 28 29  2  0  0  0  0 
  1  2  2  0  0  0  0 
 29 30  1  0  0  0  0 
 14 15  2  0  0  0  0 
 30 31  2  0  0  0  0 
 31 26  1  0  0  0  0 
  5  4  2  0  0  0  0 
 28 32  1  0  0  0  0 
 15 16  1  0  0  0  0 
 30 33  1  0  0  0  0 
  4  1  1  0  0  0  0 
 25 34  1  1  0  0  0 
 16 17  2  0  0  0  0 
  5 10  1  0  0  0  0 
 35 36  2  0  0  0  0 
 17 18  1  0  0  0  0 
 36 37  1  0  0  0  0 
  6  7  1  0  0  0  0 
 37 38  2  0  0  0  0 
 18 19  2  0  0  0  0 
 38 39  1  0  0  0  0 
 19 14  1  0  0  0  0 
 39 40  2  0  0  0  0 
 40 35  1  0  0  0  0 
 24 35  1  1  0  0  0 
  8 14  1  1  0  0  0 
 39 41  1  0  0  0  0 
  7  8  1  0  0  0  0 
 38 42  1  0  0  0  0 
M  END
>  <MOLREGNO>
462002

>  <CHEMBLID>
CHEMBL504937

>  <SYNONYMS>
Procyanidin B1

>  <MAX_PHASE>
0

>  <MOLWEIGHT>
578.52

>  <ALOGP>
3.57

>  <PSA>
220.75

>  <HBA>
12

>  <HBD>
10

>  <RO5>
3

>  <RTB>
3

>  <RO3>
N

>  <ACD_MOST_APKA>
9.29

>  <ACD_MOST_BPKA>


>  <ACD_LOGP>
.98

>  <ACD_LOGD>
.98

>  <AROMATIC_RINGS>
4

>  <HEAVY_ATOMS>
42

>  <QED_WEIGHTED>
.16

>  <HBA_LIPINSKI>
12

>  <HBD_LIPINSKI>
10

>  <NUM_LIPINSKI_RO5_VIOLATIONS>
2

>  <MW_MONOISOTOPIC>
578.1424

>  <MOLECULAR_SPECIES>
NEUTRAL

>  <FULL_MOLFORMULA>
C30H26O12

$$$$

  SciTegic12231509382D

 27 30  0  0  1  0            999 V2000
    8.7204   -1.3432    0.0000 O   0  0
    3.8596    1.7750    0.0000 O   0  0
    9.8005   -0.0959    0.0000 O   0  0
    2.7794    0.5277    0.0000 O   0  0
    6.2900   -0.8755    0.0000 N   0  0
    6.0199   -0.0959    0.0000 C   0  0  2  0  0  0
    5.2098    0.0600    0.0000 C   0  0
    7.6402   -0.4078    0.0000 C   0  0
    7.3701    0.3718    0.0000 C   0  0
    4.6697   -0.5637    0.0000 C   0  0
    6.5600    0.5277    0.0000 C   0  0
    7.1001   -1.0314    0.0000 C   0  0
    8.4503   -0.5637    0.0000 C   0  0
    4.9397    0.8395    0.0000 C   0  0
    5.7499   -1.4991    0.0000 C   0  0
    4.1296    0.9954    0.0000 C   0  0
    4.9397   -1.3432    0.0000 C   0  0
    8.9904    0.0600    0.0000 C   0  0
    3.8596   -0.4078    0.0000 C   0  0
    3.5895    0.3718    0.0000 C   0  0
    7.9102    0.9954    0.0000 C   0  0
    8.7204    0.8395    0.0000 C   0  0
    9.5305   -1.4991    0.0000 C   0  0
    3.0494    1.9309    0.0000 C   0  0
   10.3406    0.5277    0.0000 C   0  0
    2.2393   -0.0959    0.0000 C   0  0
    5.6926    0.8490    0.0000 H   0  0
  1 13  1  0
  1 23  1  0
  2 16  1  0
  2 24  1  0
  3 18  1  0
  3 25  1  0
  4 20  1  0
  4 26  1  0
  5  6  1  0
  5 12  1  0
  5 15  1  0
  6  7  1  0
  6 11  1  0
  7 10  1  0
  7 14  2  0
  8  9  1  0
  8 12  1  0
  8 13  2  0
  9 11  1  0
  9 21  2  0
 10 17  1  0
 10 19  2  0
 13 18  1  0
 14 16  1  0
 15 17  1  0
 16 20  2  0
 18 22  2  0
 19 20  1  0
 21 22  1  0
  6 27  1  1
M  END
>  <MOLREGNO>
442573

>  <CHEMBLID>
CHEMBL487182

>  <SYNONYMS>
Tetrahydropalmatine | L-Tetrahydropalmatine | (-)-Tetrahydropalmatine

>  <MAX_PHASE>
0

>  <MOLWEIGHT>
355.43

>  <ALOGP>
3.6

>  <PSA>
40.16

>  <HBA>
5

>  <HBD>
0

>  <RO5>
0

>  <RTB>
4

>  <RO3>
N

>  <ACD_MOST_APKA>


>  <ACD_MOST_BPKA>
5.44

>  <ACD_LOGP>
2.98

>  <ACD_LOGD>
2.98

>  <AROMATIC_RINGS>
2

>  <HEAVY_ATOMS>
26

>  <QED_WEIGHTED>
.84

>  <HBA_LIPINSKI>
5

>  <HBD_LIPINSKI>
0

>  <NUM_LIPINSKI_RO5_VIOLATIONS>
0

>  <MW_MONOISOTOPIC>
355.1784

>  <MOLECULAR_SPECIES>
NEUTRAL

>  <FULL_MOLFORMULA>
C21H25NO4

$$$$

  SciTegic12231509382D

 27 30  0  0  0  0            999 V2000
   25.4196   -6.9320    0.0000 C   0  0
   25.4178   -5.2869    0.0000 C   0  0
   26.1299   -5.6941    0.0000 C   0  0
   26.1333   -6.5232    0.0000 C   0  0
   27.5625   -5.6882    0.0000 C   0  0
   26.8422   -5.2743    0.0000 C   0  0
   27.5660   -6.5173    0.0000 N   0  3
   26.8490   -6.9345    0.0000 C   0  0
   26.8518   -7.7595    0.0000 C   0  0
   28.2858   -6.9250    0.0000 C   0  0
   28.2870   -7.7562    0.0000 C   0  0
   27.5715   -8.1721    0.0000 C   0  0
   27.5749   -8.9978    0.0000 C   0  0
   28.2931   -9.4086    0.0000 C   0  0
   29.0093   -8.9876    0.0000 C   0  0
   29.0023   -8.1633    0.0000 C   0  0
   24.7083   -6.5211    0.0000 C   0  0
   24.7095   -5.6961    0.0000 C   0  0
   29.7104   -7.7477    0.0000 O   0  0
   30.4244   -8.1530    0.0000 C   0  0
   29.7236   -9.3924    0.0000 O   0  0
   29.7303  -10.2135    0.0000 C   0  0
   23.9987   -5.2852    0.0000 O   0  0
   23.9968   -6.9310    0.0000 O   0  0
   23.2874   -5.6953    0.0000 C   0  0
   23.9962   -7.7521    0.0000 C   0  0
   26.1420   -8.1724    0.0000 C   0  0
 17  1  1  0
  1  4  2  0
  3  2  2  0
  2 18  1  0
  3  4  1  0
  3  6  1  0
  4  8  1  0
  7  5  1  0
  5  6  1  0
  7  8  1  0
  7 10  2  0
  8  9  2  0
  9 12  1  0
 11 10  1  0
 11 12  2  0
 12 13  1  0
 13 14  2  0
 14 15  1  0
 15 16  2  0
 16 11  1  0
 17 18  2  0
 16 19  1  0
 19 20  1  0
 15 21  1  0
 21 22  1  0
 18 23  1  0
 17 24  1  0
 23 25  1  0
 24 26  1  0
  9 27  1  0
M  CHG  1   7   1
M  END
>  <MOLREGNO>
1264640

>  <CHEMBLID>
CHEMBL1917176

>  <SYNONYMS>
Dehydrocorydaline

>  <MAX_PHASE>
0

>  <MOLWEIGHT>
366.43

>  <ALOGP>
4.65

>  <PSA>
40.79

>  <HBA>
4

>  <HBD>
0

>  <RO5>
0

>  <RTB>
4

>  <RO3>
N

>  <ACD_MOST_APKA>


>  <ACD_MOST_BPKA>
8.66

>  <ACD_LOGP>
2.64

>  <ACD_LOGD>
1.54

>  <AROMATIC_RINGS>
3

>  <HEAVY_ATOMS>
27

>  <QED_WEIGHTED>
.63

>  <HBA_LIPINSKI>
5

>  <HBD_LIPINSKI>
0

>  <NUM_LIPINSKI_RO5_VIOLATIONS>
0

>  <MW_MONOISOTOPIC>
366.1705

>  <MOLECULAR_SPECIES>
BASE

>  <FULL_MOLFORMULA>
C22H24NO4

$$$$

  SciTegic12231509382D

 36 40  0  0  0  0            999 V2000
    7.7569  -10.8177    0.0000 C   0  0
    7.7569  -11.6444    0.0000 C   0  0  1  0  0  0
    8.4690  -12.0556    0.0000 C   0  0
    8.4690  -10.4019    0.0000 C   0  0
    9.1857  -10.8177    0.0000 C   0  0  1  0  0  0
    9.1822  -11.6444    0.0000 C   0  0  1  0  0  0
    9.8925  -12.0586    0.0000 C   0  0
   10.6110  -11.6506    0.0000 C   0  0
    9.8995  -10.4050    0.0000 C   0  0  2  0  0  0
   10.6120  -10.8250    0.0000 C   0  0  2  0  0  0
   10.6255   -9.1740    0.0000 C   0  0
    9.9032   -9.5802    0.0000 C   0  0
   11.3379   -9.5940    0.0000 C   0  0
   11.3247  -10.4201    0.0000 C   0  0  1  0  0  0
   12.0296  -10.8422    0.0000 C   0  0
   12.7522  -10.4428    0.0000 C   0  0
   12.0559   -9.1900    0.0000 C   0  0  1  0  0  0
   12.7640   -9.6179    0.0000 C   0  0  2  0  0  0
   13.4846   -9.2208    0.0000 C   0  0
   13.5033   -8.3943    0.0000 C   0  0
   12.7953   -7.9665    0.0000 C   0  0  2  0  0  0
   12.0684   -8.3651    0.0000 C   0  0  2  0  0  0
    7.0448  -12.0556    0.0000 O   0  0
    7.8802  -12.6358    0.0000 C   0  0
    8.6751  -12.8460    0.0000 C   0  0
    9.1776   -9.9954    0.0000 C   0  0
    9.1776  -12.4622    0.0000 H   0  0
    9.8948  -11.2242    0.0000 H   0  0
   10.6029   -9.9999    0.0000 C   0  0
   11.3201  -11.2379    0.0000 C   0  0
   12.0511  -10.0091    0.0000 H   0  0
   11.3641   -7.9409    0.0000 C   0  0
   12.8125   -7.1443    0.0000 C   0  0
   13.4718  -10.0273    0.0000 C   0  0
   13.4711  -10.8496    0.0000 O   0  0
   14.1842   -9.6168    0.0000 O   0  0
 16 18  1  0
 17 18  1  0
  5  9  1  0
  6  7  1  0
  7  8  1  0
  8 10  1  0
  9 10  1  0
  2  3  1  0
 17 22  1  0
 18 19  1  0
 19 20  1  0
 20 21  1  0
 21 22  1  0
  3  6  1  0
  2 23  1  1
  5  4  1  0
  3 24  1  0
  5  6  1  0
  3 25  1  0
  9 12  1  0
  5 26  1  1
 10 14  1  0
  6 27  1  6
 13 11  2  0
  9 28  1  6
 11 12  1  0
 10 29  1  1
 13 14  1  0
 14 30  1  6
 17 31  1  1
  1  2  1  0
 22 32  1  1
 21 33  1  6
  1  4  1  0
 18 34  1  1
 13 17  1  0
 34 35  2  0
 14 15  1  0
 34 36  1  0
 15 16  1  0
M  END
>  <MOLREGNO>
201200

>  <CHEMBLID>
CHEMBL169

>  <SYNONYMS>
NSC-4060 | Ursolic Acid Hydrogen Malonate | Ursolic Acid Glutaryl Hemi Ester

>  <MAX_PHASE>
0

>  <MOLWEIGHT>
456.7

>  <ALOGP>
6.49

>  <PSA>
57.53

>  <HBA>
3

>  <HBD>
2

>  <RO5>
1

>  <RTB>
1

>  <RO3>
N

>  <ACD_MOST_APKA>
4.68

>  <ACD_MOST_BPKA>


>  <ACD_LOGP>
8.73

>  <ACD_LOGD>
6.05

>  <AROMATIC_RINGS>
0

>  <HEAVY_ATOMS>
33

>  <QED_WEIGHTED>
.44

>  <HBA_LIPINSKI>
3

>  <HBD_LIPINSKI>
2

>  <NUM_LIPINSKI_RO5_VIOLATIONS>
1

>  <MW_MONOISOTOPIC>
456.3603

>  <MOLECULAR_SPECIES>
ACID

>  <FULL_MOLFORMULA>
C30H48O3

$$$$

  SciTegic09261414532D

 49 52  0  0  0  0            999 V2000
   10.8561   -5.9969    0.0000 O   0  0
   10.1470   -6.4055    0.0000 C   0  0  1  0  0  0
   10.1470   -7.2227    0.0000 C   0  0  2  0  0  0
   10.8561   -7.6312    0.0000 O   0  0
    9.4379   -7.6312    0.0000 C   0  0  1  0  0  0
    9.4379   -8.4484    0.0000 O   0  0
    8.7330   -7.2227    0.0000 C   0  0  2  0  0  0
    8.0239   -7.6354    0.0000 O   0  0
    8.7330   -6.4096    0.0000 C   0  0  2  0  0  0
    9.4379   -6.0010    0.0000 O   0  0
    8.0239   -6.0010    0.0000 C   0  0
   11.5635   -6.4061    0.0000 C   0  0
   12.2715   -5.9981    0.0000 C   0  0
   12.9789   -6.4072    0.0000 C   0  0
   12.9767   -7.2237    0.0000 C   0  0
   13.6832   -7.6328    0.0000 C   0  0
   14.3923   -7.2248    0.0000 C   0  0
   14.3903   -6.4034    0.0000 C   0  0
   13.6832   -5.9979    0.0000 C   0  0
   15.1002   -7.6330    0.0000 O   0  0
    7.3165   -6.4102    0.0000 O   0  0
    6.6085   -6.0022    0.0000 C   0  0
    5.9011   -6.4114    0.0000 C   0  0
    6.6078   -5.1850    0.0000 O   0  0
    5.1931   -6.0034    0.0000 C   0  0  1  0  0  0
    5.1909   -5.1878    0.0000 C   0  0
    4.4869   -4.7799    0.0000 C   0  0  1  0  0  0
    3.7771   -5.1856    0.0000 O   0  0
    3.7759   -6.0038    0.0000 C   0  0
    4.4844   -6.4162    0.0000 C   0  0
    4.4845   -7.2334    0.0000 C   0  0
    3.7769   -7.6421    0.0000 O   0  0
    5.1923   -7.6419    0.0000 O   0  0
    3.0691   -7.2336    0.0000 C   0  0
    5.8984   -4.7789    0.0000 C   0  0
    5.8979   -3.9617    0.0000 C   0  0
    4.4893   -3.9628    0.0000 O   0  0
    3.7828   -3.5521    0.0000 C   0  0  2  0  0  0
    3.7851   -2.7323    0.0000 O   0  0
    3.0827   -2.3218    0.0000 C   0  0  1  0  0  0
    2.3714   -2.7248    0.0000 C   0  0  2  0  0  0
    2.3670   -3.5429    0.0000 C   0  0  1  0  0  0
    3.0740   -3.9580    0.0000 C   0  0  1  0  0  0
    3.0695   -4.7752    0.0000 O   0  0
    1.6568   -3.9470    0.0000 O   0  0
    1.6665   -2.3114    0.0000 O   0  0
    3.0882   -1.5046    0.0000 C   0  0
    3.7986   -1.1008    0.0000 O   0  0
    5.0641   -4.1974    0.0000 H   0  0
  2  1  1  1
  2  3  1  0
  3  4  1  6
  3  5  1  0
  5  6  1  1
  5  7  1  0
  7  8  1  6
  7  9  1  0
  9 10  1  0
  9 11  1  1
  2 10  1  0
  1 12  1  0
 12 13  1  0
 13 14  1  0
 14 15  2  0
 15 16  1  0
 16 17  2  0
 17 18  1  0
 18 19  2  0
 19 14  1  0
 17 20  1  0
 11 21  1  0
 21 22  1  0
 22 23  1  0
 22 24  2  0
 25 23  1  6
 25 26  1  0
 25 30  1  0
 26 27  1  0
 27 28  1  0
 28 29  1  0
 29 30  2  0
 30 31  1  0
 31 32  1  0
 31 33  2  0
 32 34  1  0
 26 35  2  0
 35 36  1  0
 27 37  1  0
 38 37  1  1
 38 39  1  0
 38 43  1  0
 39 40  1  0
 40 41  1  0
 41 42  1  0
 42 43  1  0
 43 44  1  6
 42 45  1  1
 41 46  1  6
 40 47  1  1
 47 48  1  0
 27 49  1  6
M  END
>  <MOLREGNO>
1760156

>  <CHEMBLID>
CHEMBL3289607

>  <SYNONYMS>


>  <MAX_PHASE>
0

>  <MOLWEIGHT>
686.65

>  <ALOGP>
-1.34

>  <PSA>
260.58

>  <HBA>
17

>  <HBD>
8

>  <RO5>
3

>  <RTB>
14

>  <RO3>
N

>  <ACD_MOST_APKA>


>  <ACD_MOST_BPKA>


>  <ACD_LOGP>
2.53

>  <ACD_LOGD>
2.53

>  <AROMATIC_RINGS>
1

>  <HEAVY_ATOMS>
48

>  <QED_WEIGHTED>
.08

>  <HBA_LIPINSKI>
17

>  <HBD_LIPINSKI>
8

>  <NUM_LIPINSKI_RO5_VIOLATIONS>
2

>  <MW_MONOISOTOPIC>
686.2422

>  <MOLECULAR_SPECIES>
NEUTRAL

>  <FULL_MOLFORMULA>
C31H42O17

$$$$

  SciTegic01161211252D

 36 41  0  0  0  0            999 V2000
   -1.0478    0.0874    0.0000 C   0  0  1  0  0  0
   -1.0464   -0.7525    0.0000 C   0  0
   -0.3153   -1.1690    0.0000 C   0  0  2  0  0  0
    0.4060   -0.7500    0.0000 C   0  0  2  0  0  0
    0.4046    0.0899    0.0000 C   0  0
   -0.3182    0.5109    0.0000 C   0  0  1  0  0  0
   -0.3197    1.3508    0.0000 C   0  0
    0.4880    0.7339    0.0000 O   0  0
   -0.3160   -0.3313    0.0000 C   0  0  1  0  0  0
    0.8624   -0.0307    0.0000 C   0  0  1  0  0  0
   -1.7762    0.5037    0.0000 O   0  0
   -1.0452   -1.4326    0.0000 C   0  0
   -0.7220   -2.0654    0.0000 O   0  0
   -0.1041   -1.9767    0.0000 H   0  0
   -4.6425    1.2512    0.0000 O   0  0
   -4.6183    0.4263    0.0000 C   0  0
   -3.8933    0.0335    0.0000 C   0  0  2  0  0  0
   -3.8748   -0.7897    0.0000 C   0  0  2  0  0  0
   -3.1540   -1.1826    0.0000 C   0  0  1  0  0  0
   -2.4509   -0.7510    0.0000 C   0  0  2  0  0  0
   -2.4733    0.0737    0.0000 C   0  0  1  0  0  0
   -3.1988    0.4668    0.0000 O   0  0
   -4.5774   -1.2172    0.0000 O   0  0
   -3.1328   -2.0063    0.0000 O   0  0
   -1.7275   -1.1466    0.0000 O   0  0
   -1.1120   -2.6638    0.0000 C   0  0
   -0.7887   -3.2965    0.0000 C   0  0
   -1.8209   -2.6252    0.0000 O   0  0
   -1.1764   -3.8886    0.0000 C   0  0
   -0.8579   -4.5209    0.0000 C   0  0
   -0.1482   -4.5598    0.0000 C   0  0
    0.2419   -3.9613    0.0000 C   0  0
   -0.0829   -3.3315    0.0000 C   0  0
    0.4016   -1.5728    0.0000 O   0  0
    1.4431   -0.6107    0.0000 O   0  0
    1.5728    0.3890    0.0000 H   0  0
 17 18  1  0
  2  3  1  0
  3  4  1  0
  4  5  1  0
  5  6  1  0
  6  7  1  6
 17 22  1  0
 18 19  1  0
 19 20  1  0
 20 21  1  0
 21 22  1  0
  6  8  1  0
 18 23  1  6
  1  9  1  0
 19 24  1  1
  3  9  1  0
 20 25  1  6
 21 11  1  1
  9 10  1  0
 13 26  1  0
  8 10  1  0
 26 27  1  0
  1 11  1  6
 26 28  2  0
  9 12  1  1
 27 29  2  0
 12 13  1  0
 29 30  1  0
  3 14  1  6
 30 31  2  0
 31 32  1  0
  1  2  1  0
 32 33  2  0
 33 27  1  0
 15 16  1  0
  4 34  1  6
  1  6  1  0
 10 35  1  0
  4 35  1  0
 17 16  1  1
 10 36  1  1
M  END
>  <MOLREGNO>
617883

>  <CHEMBLID>
CHEMBL1078549

>  <SYNONYMS>
Paeoniflorin | Peoniflorin

>  <MAX_PHASE>
0

>  <MOLWEIGHT>
480.46

>  <ALOGP>
-1.28

>  <PSA>
164.37

>  <HBA>
11

>  <HBD>
5

>  <RO5>
1

>  <RTB>
7

>  <RO3>
N

>  <ACD_MOST_APKA>
11.52

>  <ACD_MOST_BPKA>


>  <ACD_LOGP>
.25

>  <ACD_LOGD>
.25

>  <AROMATIC_RINGS>
1

>  <HEAVY_ATOMS>
34

>  <QED_WEIGHTED>
.3

>  <HBA_LIPINSKI>
11

>  <HBD_LIPINSKI>
5

>  <NUM_LIPINSKI_RO5_VIOLATIONS>
1

>  <MW_MONOISOTOPIC>
480.1632

>  <MOLECULAR_SPECIES>
NEUTRAL

>  <FULL_MOLFORMULA>
C23H28O11

$$$$

  SciTegic01161211252D

 44 50  0  0  0  0            999 V2000
    8.2403   -1.2541    0.0000 C   0  0  1  0  0  0
    8.2417   -2.0945    0.0000 C   0  0
    8.9697   -2.5094    0.0000 C   0  0  2  0  0  0
    9.6921   -2.0920    0.0000 C   0  0  2  0  0  0
    9.6906   -1.2515    0.0000 C   0  0
    8.9668   -0.8283    0.0000 C   0  0  1  0  0  0
    8.9653    0.0123    0.0000 C   0  0
    9.7737   -0.6061    0.0000 O   0  0
    8.9690   -1.6710    0.0000 C   0  0  1  0  0  0
   10.1508   -1.3717    0.0000 C   0  0  1  0  0  0
    7.5109   -0.8354    0.0000 O   0  0
    8.2429   -2.7760    0.0000 C   0  0
    8.5647   -3.4102    0.0000 O   0  0
    9.1841   -3.3177    0.0000 H   0  0
    4.6396   -0.0911    0.0000 O   0  0
    4.6643   -0.9167    0.0000 C   0  0
    5.3902   -1.3078    0.0000 C   0  0  2  0  0  0
    5.4087   -2.1315    0.0000 C   0  0  2  0  0  0
    6.1307   -2.5228    0.0000 C   0  0  1  0  0  0
    6.8349   -2.0930    0.0000 C   0  0  2  0  0  0
    6.8126   -1.2678    0.0000 C   0  0  1  0  0  0
    6.0861   -0.8722    0.0000 O   0  0
    4.7050   -2.5615    0.0000 O   0  0
    6.1518   -3.3471    0.0000 O   0  0
    7.5594   -2.4870    0.0000 O   0  0
    8.1764   -4.0061    0.0000 C   0  0
    8.4982   -4.6402    0.0000 C   0  0
    7.4663   -3.9676    0.0000 O   0  0
    8.1081   -5.2339    0.0000 C   0  0
    8.4294   -5.8677    0.0000 C   0  0
    9.1403   -5.9065    0.0000 C   0  0
    9.5287   -5.3063    0.0000 C   0  0
    9.2052   -4.6750    0.0000 C   0  0
    9.6877   -2.9155    0.0000 O   0  0
   10.7331   -1.9534    0.0000 O   0  0
   10.8622   -0.9538    0.0000 H   0  0
    3.9134    0.2998    0.0000 C   0  0
    3.8887    1.1241    0.0000 C   0  0
    3.2119   -0.1337    0.0000 O   0  0
    4.5916    1.5566    0.0000 C   0  0
    4.5674    2.3800    0.0000 C   0  0
    3.8406    2.7717    0.0000 C   0  0
    3.1369    2.3337    0.0000 C   0  0
    3.1646    1.5117    0.0000 C   0  0
 19 20  1  0
 20 21  1  0
 21 22  1  0
  6  8  1  0
 18 23  1  6
  1  9  1  0
 19 24  1  1
  3  9  1  0
 20 25  1  6
 21 11  1  1
  9 10  1  0
 13 26  1  0
  8 10  1  0
 26 27  1  0
  1 11  1  6
 26 28  2  0
  9 12  1  1
 27 29  2  0
 12 13  1  0
 29 30  1  0
  3 14  1  6
 30 31  2  0
 31 32  1  0
  1  2  1  0
 32 33  2  0
 33 27  1  0
 15 16  1  0
  4 34  1  6
  1  6  1  0
 10 35  1  0
  4 35  1  0
 17 16  1  1
 10 36  1  1
 17 18  1  0
 15 37  1  0
  2  3  1  0
 37 38  1  0
  3  4  1  0
 37 39  2  0
  4  5  1  0
 38 40  2  0
  5  6  1  0
 40 41  1  0
  6  7  1  6
 41 42  2  0
 17 22  1  0
 42 43  1  0
 18 19  1  0
 43 44  2  0
 44 38  1  0
M  END
>  <MOLREGNO>
617884

>  <CHEMBLID>
CHEMBL1077641

>  <SYNONYMS>
Benzoylpaeoniflorin

>  <MAX_PHASE>
0

>  <MOLWEIGHT>
584.57

>  <ALOGP>
.76

>  <PSA>
170.44

>  <HBA>
12

>  <HBD>
4

>  <RO5>
2

>  <RTB>
10

>  <RO3>
N

>  <ACD_MOST_APKA>
11.52

>  <ACD_MOST_BPKA>


>  <ACD_LOGP>
1.46

>  <ACD_LOGD>
1.46

>  <AROMATIC_RINGS>
2

>  <HEAVY_ATOMS>
42

>  <QED_WEIGHTED>
.29

>  <HBA_LIPINSKI>
12

>  <HBD_LIPINSKI>
4

>  <NUM_LIPINSKI_RO5_VIOLATIONS>
1

>  <MW_MONOISOTOPIC>
584.1894

>  <MOLECULAR_SPECIES>
NEUTRAL

>  <FULL_MOLFORMULA>
C30H32O12

$$$$

  SciTegic01161211252D

 37 42  0  0  0  0            999 V2000
   20.3484  -22.2965    0.0000 C   0  0  1  0  0  0
   20.3498  -23.1365    0.0000 C   0  0
   21.0809  -23.5530    0.0000 C   0  0  2  0  0  0
   21.8022  -23.1340    0.0000 C   0  0  2  0  0  0
   21.8008  -22.2940    0.0000 C   0  0
   21.0780  -21.8731    0.0000 C   0  0  1  0  0  0
   21.0765  -21.0331    0.0000 C   0  0
   21.8842  -21.6500    0.0000 O   0  0
   21.0802  -22.7153    0.0000 C   0  0  1  0  0  0
   22.2588  -22.4147    0.0000 C   0  0  1  0  0  0
   19.6201  -21.8802    0.0000 O   0  0
   20.3510  -23.8166    0.0000 C   0  0
   20.6743  -24.4494    0.0000 O   0  0
   21.2922  -24.3607    0.0000 H   0  0
   16.7537  -21.1327    0.0000 O   0  0
   16.7779  -21.9576    0.0000 C   0  0
   17.5029  -22.3505    0.0000 C   0  0  2  0  0  0
   17.5215  -23.1736    0.0000 C   0  0  2  0  0  0
   18.2422  -23.5666    0.0000 C   0  0  1  0  0  0
   18.9454  -23.1350    0.0000 C   0  0  2  0  0  0
   18.9230  -22.3103    0.0000 C   0  0  1  0  0  0
   18.1975  -21.9172    0.0000 O   0  0
   16.8188  -23.6012    0.0000 O   0  0
   18.2634  -24.3902    0.0000 O   0  0
   19.6688  -23.5306    0.0000 O   0  0
   20.2843  -25.0478    0.0000 C   0  0
   20.6075  -25.6805    0.0000 C   0  0
   19.5753  -25.0092    0.0000 O   0  0
   20.2198  -26.2726    0.0000 C   0  0
   20.5383  -26.9049    0.0000 C   0  0
   21.2481  -26.9438    0.0000 C   0  0
   21.6382  -26.3453    0.0000 C   0  0
   21.3133  -25.7155    0.0000 C   0  0
   21.7978  -23.9568    0.0000 O   0  0
   22.8393  -22.9946    0.0000 O   0  0
   22.9690  -21.9950    0.0000 H   0  0
   21.5695  -27.5779    0.0000 O   0  0
  2  3  1  0
  3  4  1  0
  4  5  1  0
  5  6  1  0
  6  7  1  6
 17 22  1  0
 18 19  1  0
 19 20  1  0
 20 21  1  0
 21 22  1  0
  6  8  1  0
 18 23  1  6
  1  9  1  0
 19 24  1  1
  3  9  1  0
 20 25  1  6
 21 11  1  1
  9 10  1  0
 13 26  1  0
  8 10  1  0
 26 27  1  0
  1 11  1  6
 26 28  2  0
  9 12  1  1
 27 29  2  0
 12 13  1  0
 29 30  1  0
  3 14  1  6
 30 31  2  0
 31 32  1  0
  1  2  1  0
 32 33  2  0
 33 27  1  0
 15 16  1  0
  4 34  1  6
  1  6  1  0
 10 35  1  0
  4 35  1  0
 17 16  1  1
 10 36  1  1
 17 18  1  0
 31 37  1  0
M  END
>  <MOLREGNO>
617889

>  <CHEMBLID>
CHEMBL1078550

>  <SYNONYMS>
Oxypaeoniflorin

>  <MAX_PHASE>
0

>  <MOLWEIGHT>
496.46

>  <ALOGP>
-1.53

>  <PSA>
184.6

>  <HBA>
12

>  <HBD>
6

>  <RO5>
2

>  <RTB>
7

>  <RO3>
N

>  <ACD_MOST_APKA>
8.16

>  <ACD_MOST_BPKA>


>  <ACD_LOGP>
0

>  <ACD_LOGD>
-.07

>  <AROMATIC_RINGS>
1

>  <HEAVY_ATOMS>
35

>  <QED_WEIGHTED>
.24

>  <HBA_LIPINSKI>
12

>  <HBD_LIPINSKI>
6

>  <NUM_LIPINSKI_RO5_VIOLATIONS>
2

>  <MW_MONOISOTOPIC>
496.1581

>  <MOLECULAR_SPECIES>
NEUTRAL

>  <FULL_MOLFORMULA>
C23H28O12

$$$$

  SciTegic01161211252D

 30 32  0  0  0  0            999 V2000
   12.3979  -12.2591    0.0000 O   0  0
   11.6826  -12.6714    0.0000 C   0  0  1  0  0  0
   11.6826  -13.4958    0.0000 C   0  0  1  0  0  0
   12.3979  -13.9080    0.0000 C   0  0  2  0  0  0
   13.1092  -13.4958    0.0000 C   0  0  1  0  0  0
   13.1092  -12.6714    0.0000 C   0  0  1  0  0  0
   10.9714  -13.9080    0.0000 O   0  0
   12.3979  -14.7324    0.0000 O   0  0
   13.8246  -13.9080    0.0000 O   0  0
   13.8246  -12.2591    0.0000 C   0  0
   13.8246  -11.4347    0.0000 O   0  0
   14.5399  -10.1981    0.0000 O   0  0
   14.5399  -11.0225    0.0000 C   0  0  2  0  0  0
   15.2553  -11.4347    0.0000 C   0  0  1  0  0  0
   15.9665  -11.0225    0.0000 C   0  0  2  0  0  0
   15.9665  -10.1981    0.0000 C   0  0  2  0  0  0
   15.2553   -9.7859    0.0000 C   0  0
   16.6819   -9.7859    0.0000 O   0  0
   16.6819  -11.4347    0.0000 O   0  0
   15.2553  -12.2591    0.0000 O   0  0
   10.9714  -12.2591    0.0000 O   0  0
   10.2560  -12.6714    0.0000 C   0  0
    9.5406  -12.2591    0.0000 C   0  0
    8.8253  -12.6714    0.0000 C   0  0
    8.1141  -12.2591    0.0000 C   0  0
    8.1141  -11.4347    0.0000 C   0  0
    7.3987  -11.0225    0.0000 C   0  0
    6.6833  -11.4347    0.0000 C   0  0
    6.6833  -12.2591    0.0000 C   0  0
    7.3987  -12.6714    0.0000 C   0  0
  1  2  1  0
  2  3  1  0
  3  4  1  0
  4  5  1  0
  5  6  1  0
  1  6  1  0
  3  7  1  1
  4  8  1  6
  5  9  1  1
 12 13  1  0
 13 14  1  0
 14 15  1  0
 15 16  1  0
 16 17  1  0
 12 17  1  0
 16 18  1  6
 15 19  1  6
 14 20  1  1
 13 11  1  6
 10 11  1  0
  6 10  1  6
 22 23  1  0
 23 24  2  0
 21 22  1  0
 25 26  1  0
 26 27  2  0
 27 28  1  0
 28 29  2  0
 29 30  1  0
 25 30  2  0
 24 25  1  0
  2 21  1  1
M  END
>  <MOLREGNO>
615344

>  <CHEMBLID>
CHEMBL1083511

>  <SYNONYMS>
Rosavin

>  <MAX_PHASE>
0

>  <MOLWEIGHT>
428.43

>  <ALOGP>
-1.29

>  <PSA>
158.29

>  <HBA>
10

>  <HBD>
6

>  <RO5>
1

>  <RTB>
7

>  <RO3>
N

>  <ACD_MOST_APKA>
12.89

>  <ACD_MOST_BPKA>


>  <ACD_LOGP>
-.66

>  <ACD_LOGD>
-.66

>  <AROMATIC_RINGS>
1

>  <HEAVY_ATOMS>
30

>  <QED_WEIGHTED>
.31

>  <HBA_LIPINSKI>
10

>  <HBD_LIPINSKI>
6

>  <NUM_LIPINSKI_RO5_VIOLATIONS>
1

>  <MW_MONOISOTOPIC>
428.1682

>  <MOLECULAR_SPECIES>
NEUTRAL

>  <FULL_MOLFORMULA>
C20H28O10

$$$$

  NO STRUCTURE          

  0  0  0  0  0  0            999 V2000
M  END
>  <MOLREGNO>
1380751

>  <CHEMBLID>
CHEMBL2108485

>  <SYNONYMS>
ROSIN

>  <MAX_PHASE>
0

>  <MOLWEIGHT>


>  <ALOGP>


>  <PSA>


>  <HBA>


>  <HBD>


>  <RO5>


>  <RTB>


>  <RO3>


>  <ACD_MOST_APKA>


>  <ACD_MOST_BPKA>


>  <ACD_LOGP>


>  <ACD_LOGD>


>  <AROMATIC_RINGS>


>  <HEAVY_ATOMS>


>  <QED_WEIGHTED>


>  <HBA_LIPINSKI>


>  <HBD_LIPINSKI>


>  <NUM_LIPINSKI_RO5_VIOLATIONS>


>  <MW_MONOISOTOPIC>


>  <MOLECULAR_SPECIES>


>  <FULL_MOLFORMULA>


$$$$

  SciTegic08161218152D

 21 22  0  0  0  0            999 V2000
   -1.5004  -12.7854    0.0000 C   0  0
   -2.2148  -12.3729    0.0000 C   0  0
   -2.9293  -12.7854    0.0000 C   0  0
   -2.9293  -13.6104    0.0000 C   0  0
   -2.2148  -14.0229    0.0000 C   0  0
   -1.5004  -13.6104    0.0000 C   0  0
   -2.2148  -11.5479    0.0000 C   0  0
   -1.5004  -11.1354    0.0000 C   0  0
   -1.5004  -10.3104    0.0000 O   0  0
   -0.7859   -9.8979    0.0000 C   0  0  2  0  0  0
   -0.7859   -9.0729    0.0000 O   0  0
   -0.0714   -8.6604    0.0000 C   0  0  1  0  0  0
    0.6430   -9.0729    0.0000 C   0  0  2  0  0  0
    0.6430   -9.8979    0.0000 C   0  0  1  0  0  0
   -0.0714  -10.3104    0.0000 C   0  0  1  0  0  0
   -0.0714   -7.8354    0.0000 C   0  0
    1.3575   -8.6604    0.0000 O   0  0
    1.3575  -10.3104    0.0000 O   0  0
   -0.0714  -11.1354    0.0000 O   0  0
    0.6430   -7.4229    0.0000 O   0  0
   -2.2148  -14.8479    0.0000 O   0  0
  2  3  1  0
  3  4  2  0
  4  5  1  0
  5  6  2  0
  6  1  1  0
  2  7  1  0
  7  8  1  0
  8  9  1  0
 10  9  1  6
 10 11  1  0
 10 15  1  0
 11 12  1  0
 12 13  1  0
 13 14  1  0
 14 15  1  0
 12 16  1  6
 13 17  1  1
 14 18  1  6
 15 19  1  1
 16 20  1  0
  1  2  2  0
  5 21  1  0
M  END
>  <MOLREGNO>
504654

>  <CHEMBLID>
CHEMBL465208

>  <SYNONYMS>
Salidroside

>  <MAX_PHASE>
0

>  <MOLWEIGHT>
300.3

>  <ALOGP>
-.44

>  <PSA>
119.61

>  <HBA>
7

>  <HBD>
5

>  <RO5>
0

>  <RTB>
5

>  <RO3>
N

>  <ACD_MOST_APKA>
9.98

>  <ACD_MOST_BPKA>


>  <ACD_LOGP>
-1.32

>  <ACD_LOGD>
-1.33

>  <AROMATIC_RINGS>
1

>  <HEAVY_ATOMS>
21

>  <QED_WEIGHTED>
.5

>  <HBA_LIPINSKI>
7

>  <HBD_LIPINSKI>
5

>  <NUM_LIPINSKI_RO5_VIOLATIONS>
0

>  <MW_MONOISOTOPIC>
300.1209

>  <MOLECULAR_SPECIES>
NEUTRAL

>  <FULL_MOLFORMULA>
C14H20O7

$$$$

  CDK    6/4/10,11:41

 32 35  0  0  0  0  0  0  0  0999 V2000
   -3.0576  -18.2203    0.0000 C   0  0  0  0  0  0  0  0  0  0  0  0
   -2.3452  -17.8072    0.0000 C   0  0  0  0  0  0  0  0  0  0  0  0
   -1.6295  -18.2167    0.0000 C   0  0  0  0  0  0  0  0  0  0  0  0
   -1.6306  -19.0457    0.0000 C   0  0  0  0  0  0  0  0  0  0  0  0
   -0.9172  -19.4589    0.0000 O   0  0  0  0  0  0  0  0  0  0  0  0
   -0.1980  -19.0478    0.0000 C   0  0  0  0  0  0  0  0  0  0  0  0
   -0.1968  -18.2187    0.0000 C   0  0  0  0  0  0  0  0  0  0  0  0
   -0.9148  -17.8008    0.0000 C   0  0  0  0  0  0  0  0  0  0  0  0
   -2.3434  -19.4613    0.0000 C   0  0  0  0  0  0  0  0  0  0  0  0
   -3.0557  -19.0480    0.0000 C   0  0  0  0  0  0  0  0  0  0  0  0
   -3.7659  -19.4558    0.0000 O   0  0  0  0  0  0  0  0  0  0  0  0
   -3.7700  -20.2787    0.0000 C   0  0  0  0  0  0  0  0  0  0  0  0
   -2.3414  -20.2826    0.0000 O   0  0  0  0  0  0  0  0  0  0  0  0
   -2.3477  -16.9817    0.0000 O   0  0  0  0  0  0  0  0  0  0  0  0
    0.5190  -17.8076    0.0000 O   0  0  0  0  0  0  0  0  0  0  0  0
   -0.9148  -16.9753    0.0000 O   0  0  0  0  0  0  0  0  0  0  0  0
    0.5155  -19.4586    0.0000 C   0  0  0  0  0  0  0  0  0  0  0  0
    0.5119  -20.2853    0.0000 C   0  0  0  0  0  0  0  0  0  0  0  0
    1.2249  -20.7000    0.0000 C   0  0  0  0  0  0  0  0  0  0  0  0
    1.9420  -20.2892    0.0000 C   0  0  0  0  0  0  0  0  0  0  0  0
    1.9416  -19.4593    0.0000 C   0  0  0  0  0  0  0  0  0  0  0  0
    1.2281  -19.0484    0.0000 C   0  0  0  0  0  0  0  0  0  0  0  0
    2.6563  -20.7030    0.0000 O   0  0  0  0  0  0  0  0  0  0  0  0
   -4.4834  -20.6845    0.0000 C   0  0  0  0  0  0  0  0  0  0  0  0
   -4.4895  -21.5039    0.0000 C   0  0  0  0  0  0  0  0  0  0  0  0
   -3.7807  -21.9228    0.0000 C   0  0  0  0  0  0  0  0  0  0  0  0
   -3.0642  -21.5161    0.0000 C   0  0  0  0  0  0  0  0  0  0  0  0
   -3.0564  -20.6907    0.0000 O   0  0  0  0  0  0  0  0  0  0  0  0
   -2.3528  -21.9349    0.0000 C   0  0  0  0  0  0  0  0  0  0  0  0
   -3.7880  -22.7482    0.0000 O   0  0  0  0  0  0  0  0  0  0  0  0
   -5.2080  -21.9103    0.0000 O   0  0  0  0  0  0  0  0  0  0  0  0
   -5.1954  -20.2669    0.0000 O   0  0  0  0  0  0  0  0  0  0  0  0
  4  5  1  0  0  0  0 
  8 16  2  0  0  0  0 
  5  6  1  0  0  0  0 
  6  7  2  0  0  0  0 
 17 18  2  0  0  0  0 
  7  8  1  0  0  0  0 
 18 19  1  0  0  0  0 
  9 10  1  0  0  0  0 
 19 20  2  0  0  0  0 
  1 10  2  0  0  0  0 
 20 21  1  0  0  0  0 
  9  4  2  0  0  0  0 
 21 22  2  0  0  0  0 
 22 17  1  0  0  0  0 
  6 17  1  0  0  0  0 
 20 23  1  0  0  0  0 
 12 24  1  0  0  0  0 
  3  2  2  0  0  0  0 
  2  1  1  0  0  0  0 
  9 13  1  0  0  0  0 
 10 11  1  0  0  0  0 
 11 12  1  0  0  0  0 
 12 28  1  0  0  0  0 
 24 25  1  0  0  0  0 
 25 26  1  0  0  0  0 
 26 27  1  0  0  0  0 
 27 28  1  0  0  0  0 
  3  4  1  0  0  0  0 
 27 29  1  1  0  0  0 
  2 14  1  0  0  0  0 
 26 30  1  6  0  0  0 
  3  8  1  0  0  0  0 
 25 31  1  1  0  0  0 
  7 15  1  0  0  0  0 
 24 32  1  1  0  0  0 
M  END
>  <MOLREGNO>
593315

>  <CHEMBLID>
CHEMBL596258

>  <SYNONYMS>
Rhodionin

>  <MAX_PHASE>
0

>  <MOLWEIGHT>
448.38

>  <ALOGP>
.59

>  <PSA>
186.36

>  <HBA>
11

>  <HBD>
7

>  <RO5>
2

>  <RTB>
3

>  <RO3>
N

>  <ACD_MOST_APKA>
6.67

>  <ACD_MOST_BPKA>


>  <ACD_LOGP>
.54

>  <ACD_LOGD>
-.28

>  <AROMATIC_RINGS>
2

>  <HEAVY_ATOMS>
32

>  <QED_WEIGHTED>
.33

>  <HBA_LIPINSKI>
11

>  <HBD_LIPINSKI>
7

>  <NUM_LIPINSKI_RO5_VIOLATIONS>
2

>  <MW_MONOISOTOPIC>
448.1006

>  <MOLECULAR_SPECIES>
NEUTRAL

>  <FULL_MOLFORMULA>
C21H20O11

$$$$

  CDK    9/16/09,9:19

 31 34  0  0  0  0  0  0  0  0999 V2000
   16.9773  -16.2406    0.0000 C   0  0  0  0  0  0  0  0  0  0  0  0
   17.6890  -15.8281    0.0000 C   0  0  0  0  0  0  0  0  0  0  0  0
   17.6890  -15.0031    0.0000 C   0  0  0  0  0  0  0  0  0  0  0  0
   16.9773  -14.5906    0.0000 C   0  0  0  0  0  0  0  0  0  0  0  0
   16.2615  -15.0031    0.0000 C   0  0  0  0  0  0  0  0  0  0  0  0
   16.2615  -15.8281    0.0000 O   0  0  0  0  0  0  0  0  0  0  0  0
   15.5456  -14.5906    0.0000 C   0  0  0  0  0  0  0  0  0  0  0  0
   15.5456  -13.7656    0.0000 C   0  0  0  0  0  0  0  0  0  0  0  0
   16.2615  -13.3531    0.0000 C   0  0  0  0  0  0  0  0  0  0  0  0
   16.9773  -13.7656    0.0000 C   0  0  0  0  0  0  0  0  0  0  0  0
   18.4049  -14.5906    0.0000 O   0  0  0  0  0  0  0  0  0  0  0  0
   18.4049  -16.2406    0.0000 C   0  0  0  0  0  0  0  0  0  0  0  0
   19.1208  -15.8281    0.0000 C   0  0  0  0  0  0  0  0  0  0  0  0
   19.8325  -16.2406    0.0000 C   0  0  0  0  0  0  0  0  0  0  0  0
   19.8325  -17.0656    0.0000 C   0  0  0  0  0  0  0  0  0  0  0  0
   19.1208  -17.4781    0.0000 C   0  0  0  0  0  0  0  0  0  0  0  0
   18.4049  -17.0656    0.0000 C   0  0  0  0  0  0  0  0  0  0  0  0
   20.5483  -17.4781    0.0000 O   0  0  0  0  0  0  0  0  0  0  0  0
   14.8297  -13.3531    0.0000 O   0  0  0  0  0  0  0  0  0  0  0  0
   14.8297  -15.0031    0.0000 C   0  0  0  0  0  0  0  0  0  0  0  0
   14.8297  -15.8281    0.0000 C   0  0  0  0  0  0  0  0  0  0  0  0
   15.5456  -16.2406    0.0000 O   0  0  0  0  0  0  0  0  0  0  0  0
   14.1180  -16.2406    0.0000 C   0  0  0  0  0  0  0  0  0  0  0  0
   14.1180  -17.0656    0.0000 O   0  0  0  0  0  0  0  0  0  0  0  0
   13.4022  -15.8281    0.0000 C   0  0  0  0  0  0  0  0  0  0  0  0
   12.6905  -16.2406    0.0000 O   0  0  0  0  0  0  0  0  0  0  0  0
   13.4022  -15.0031    0.0000 C   0  0  0  0  0  0  0  0  0  0  0  0
   14.1180  -14.5906    0.0000 O   0  0  0  0  0  0  0  0  0  0  0  0
   12.6905  -14.5906    0.0000 C   0  0  0  0  0  0  0  0  0  0  0  0
   11.9746  -15.0031    0.0000 O   0  0  0  0  0  0  0  0  0  0  0  0
   14.8250  -14.1750    0.0000 H   0  0  0  0  0  0  0  0  0  0  0  0
  1  2  2  0  0  0  0 
  2  3  1  0  0  0  0 
  3  4  1  0  0  0  0 
  4  5  1  0  0  0  0 
  5  6  1  0  0  0  0 
  1  6  1  0  0  0  0 
  7  8  1  0  0  0  0 
  8  9  2  0  0  0  0 
  9 10  1  0  0  0  0 
  4 10  2  0  0  0  0 
  5  7  2  0  0  0  0 
  3 11  2  0  0  0  0 
 12 13  1  0  0  0  0 
 13 14  2  0  0  0  0 
 14 15  1  0  0  0  0 
 15 16  2  0  0  0  0 
 16 17  1  0  0  0  0 
 12 17  2  0  0  0  0 
 15 18  1  0  0  0  0 
  2 12  1  0  0  0  0 
  8 19  1  0  0  0  0 
 20 21  1  0  0  0  0 
 21 22  1  6  0  0  0 
 21 23  1  0  0  0  0 
 23 24  1  1  0  0  0 
 23 25  1  0  0  0  0 
 25 26  1  6  0  0  0 
 25 27  1  0  0  0  0 
 27 28  1  0  0  0  0 
 27 29  1  1  0  0  0 
 29 30  1  0  0  0  0 
 20 28  1  0  0  0  0 
 20  7  1  0  0  0  0 
 20 31  1  6  0  0  0 
M  END
>  <MOLREGNO>
443776

>  <CHEMBLID>
CHEMBL486386

>  <SYNONYMS>
Puerarin

>  <MAX_PHASE>
0

>  <MOLWEIGHT>
416.38

>  <ALOGP>
-.01

>  <PSA>
156.91

>  <HBA>
9

>  <HBD>
6

>  <RO5>
1

>  <RTB>
3

>  <RO3>
N

>  <ACD_MOST_APKA>
6.46

>  <ACD_MOST_BPKA>


>  <ACD_LOGP>
.41

>  <ACD_LOGD>
-.54

>  <AROMATIC_RINGS>
2

>  <HEAVY_ATOMS>
30

>  <QED_WEIGHTED>
.41

>  <HBA_LIPINSKI>
9

>  <HBD_LIPINSKI>
6

>  <NUM_LIPINSKI_RO5_VIOLATIONS>
1

>  <MW_MONOISOTOPIC>
416.1107

>  <MOLECULAR_SPECIES>
ACID

>  <FULL_MOLFORMULA>
C21H20O9

$$$$

  SciTegic12231509382D

 26 29  0  0  1  0            999 V2000
   -2.3826    1.3438    0.0000 O   0  0
   -0.1606   -4.3599    0.0000 O   0  0
   -2.4305   -2.6385    0.0000 O   0  0
   -2.6667    4.0099    0.0000 O   0  0
    3.5000   -0.6500    0.0000 N   0  0
   -0.1600   -0.1000    0.0000 C   0  0  1  0  0  0
   -0.1600    1.2400    0.0000 C   0  0
    1.0000   -0.7700    0.0000 C   0  0  1  0  0  0
    2.2300    0.0000    0.0000 C   0  0  2  0  0  0
    1.0000    1.9500    0.0000 C   0  0
   -1.3300   -0.8200    0.0000 C   0  0
   -0.2000   -1.7500    0.0000 C   0  0
   -1.3300    1.9200    0.0000 C   0  0
    2.2300    1.2600    0.0000 C   0  0
    1.0000   -2.1600    0.0000 C   0  0
   -1.3300   -2.1600    0.0000 C   0  0
   -0.1600   -2.8600    0.0000 C   0  0
    3.2800   -1.7500    0.0000 C   0  0
   -1.3300    3.2800    0.0000 C   0  0
    1.0000    3.3400    0.0000 C   0  0
   -0.1600    4.0000    0.0000 C   0  0
    4.6622   -0.3514    0.0000 C   0  0
    0.8781   -4.9609    0.0000 C   0  0
   -2.6960    5.2095    0.0000 C   0  0
    3.0831    0.5217    0.0000 H   0  0
    1.8748   -1.2544    0.0000 H   0  0
  1 13  1  0
  2 17  1  0
  2 23  1  0
  3 16  2  0
  4 19  1  0
  4 24  1  0
  5  9  1  0
  5 18  1  0
  5 22  1  0
  6  7  1  0
  6  8  1  0
  6 11  1  1
  6 12  1  0
  7 10  1  0
  7 13  2  0
  8  9  1  0
  8 15  1  0
  9 14  1  0
 10 14  1  0
 10 20  2  0
 11 16  1  0
 12 18  1  0
 13 19  1  0
 15 17  2  0
 16 17  1  0
 19 21  2  0
 20 21  1  0
  9 25  1  1
  8 26  1  6
M  END
>  <MOLREGNO>
408548

>  <CHEMBLID>
CHEMBL248095

>  <SYNONYMS>
Sinomenine

>  <MAX_PHASE>
0

>  <MOLWEIGHT>
329.39

>  <ALOGP>
1.67

>  <PSA>
59

>  <HBA>
5

>  <HBD>
1

>  <RO5>
0

>  <RTB>
2

>  <RO3>
N

>  <ACD_MOST_APKA>
5.84

>  <ACD_MOST_BPKA>
.59

>  <ACD_LOGP>
4.04

>  <ACD_LOGD>
2.39

>  <AROMATIC_RINGS>
1

>  <HEAVY_ATOMS>
24

>  <QED_WEIGHTED>
.89

>  <HBA_LIPINSKI>
5

>  <HBD_LIPINSKI>
1

>  <NUM_LIPINSKI_RO5_VIOLATIONS>
0

>  <MW_MONOISOTOPIC>
329.1627

>  <MOLECULAR_SPECIES>
ACID

>  <FULL_MOLFORMULA>
C19H23NO4

$$$$

  CDK    10/7/09,10:42

 46 51  0  0  0  0  0  0  0  0999 V2000
    6.5022   -0.1283    0.0000 C   0  0  0  0  0  0  0  0  0  0  0  0
    6.5009   -0.9559    0.0000 C   0  0  0  0  0  0  0  0  0  0  0  0
    7.2139   -1.3688    0.0000 C   0  0  0  0  0  0  0  0  0  0  0  0
    7.2119    0.2845    0.0000 C   0  0  0  0  0  0  0  0  0  0  0  0
    7.9300   -0.1243    0.0000 C   0  0  0  0  0  0  0  0  0  0  0  0
    7.9291   -0.9579    0.0000 C   0  0  0  0  0  0  0  0  0  0  0  0
    8.6466   -1.3732    0.0000 C   0  0  0  0  0  0  0  0  0  0  0  0
    9.3697   -0.9595    0.0000 N   0  0  0  0  0  0  0  0  0  0  0  0
    9.3705   -0.1258    0.0000 C   0  0  0  0  0  0  0  0  0  0  0  0
    8.6484    0.2940    0.0000 C   0  0  0  0  0  0  0  0  0  0  0  0
    5.7859   -1.3674    0.0000 O   0  0  0  0  0  0  0  0  0  0  0  0
    5.0720   -0.9538    0.0000 C   0  0  0  0  0  0  0  0  0  0  0  0
    5.7873    0.2836    0.0000 O   0  0  0  0  0  0  0  0  0  0  0  0
    5.7866    1.1086    0.0000 C   0  0  0  0  0  0  0  0  0  0  0  0
    8.6445   -2.1982    0.0000 C   0  0  0  0  0  0  0  0  0  0  0  0
    9.3580   -2.6125    0.0000 C   0  0  0  0  0  0  0  0  0  0  0  0
    9.3543   -3.4386    0.0000 C   0  0  0  0  0  0  0  0  0  0  0  0
   10.0668   -3.8527    0.0000 C   0  0  0  0  0  0  0  0  0  0  0  0
   10.7833   -3.4420    0.0000 C   0  0  0  0  0  0  0  0  0  0  0  0
   10.7827   -2.6127    0.0000 C   0  0  0  0  0  0  0  0  0  0  0  0
   10.0695   -2.2022    0.0000 C   0  0  0  0  0  0  0  0  0  0  0  0
   11.4973   -3.8553    0.0000 O   0  0  0  0  0  0  0  0  0  0  0  0
   11.4967   -2.1994    0.0000 O   0  0  0  0  0  0  0  0  0  0  0  0
   11.4958   -1.3744    0.0000 C   0  0  0  0  0  0  0  0  0  0  0  0
   12.2094   -0.9656    0.0000 C   0  0  0  0  0  0  0  0  0  0  0  0
   12.2090   -0.1413    0.0000 C   0  0  0  0  0  0  0  0  0  0  0  0
   11.4935    0.2711    0.0000 C   0  0  0  0  0  0  0  0  0  0  0  0
   10.7771   -0.1465    0.0000 C   0  0  0  0  0  0  0  0  0  0  0  0
   10.7812   -0.9693    0.0000 C   0  0  0  0  0  0  0  0  0  0  0  0
   11.4916    1.0961    0.0000 C   0  0  0  0  0  0  0  0  0  0  0  0
   12.2050    1.5104    0.0000 C   0  0  0  0  0  0  0  0  0  0  0  0
   13.6340    2.3286    0.0000 C   0  0  0  0  0  0  0  0  0  0  0  0
   12.9187    2.7415    0.0000 C   0  0  0  0  0  0  0  0  0  0  0  0
   12.2012    2.3292    0.0000 N   0  0  0  0  0  0  0  0  0  0  0  0
   13.6317    1.5033    0.0000 C   0  0  0  0  0  0  0  0  0  0  0  0
   12.9194    1.0948    0.0000 C   0  0  0  0  0  0  0  0  0  0  0  0
   12.9178    0.2757    0.0000 C   0  0  0  0  0  0  0  0  0  0  0  0
   13.6279   -0.1362    0.0000 C   0  0  0  0  0  0  0  0  0  0  0  0
   14.3410    0.2771    0.0000 C   0  0  0  0  0  0  0  0  0  0  0  0
   14.3390    1.0950    0.0000 C   0  0  0  0  0  0  0  0  0  0  0  0
   11.4861    2.7408    0.0000 C   0  0  0  0  0  0  0  0  0  0  0  0
   13.6278   -0.9612    0.0000 O   0  0  0  0  0  0  0  0  0  0  0  0
   14.3421   -1.3738    0.0000 C   0  0  0  0  0  0  0  0  0  0  0  0
   15.0562   -0.1339    0.0000 O   0  0  0  0  0  0  0  0  0  0  0  0
   15.0580   -0.9589    0.0000 C   0  0  0  0  0  0  0  0  0  0  0  0
   10.0831   -1.3738    0.0000 C   0  0  0  0  0  0  0  0  0  0  0  0
 19 22  1  0  0  0  0 
  5  6  1  0  0  0  0 
 20 23  1  0  0  0  0 
  2 11  1  0  0  0  0 
 23 24  1  0  0  0  0 
 24 25  2  0  0  0  0 
 11 12  1  0  0  0  0 
 25 26  1  0  0  0  0 
  2  3  1  0  0  0  0 
 26 27  2  0  0  0  0 
  1 13  1  0  0  0  0 
 27 28  1  0  0  0  0 
  3  6  2  0  0  0  0 
 28 29  2  0  0  0  0 
 29 24  1  0  0  0  0 
 13 14  1  0  0  0  0 
 27 30  1  0  0  0  0 
  1  2  2  0  0  0  0 
 31 30  1  1  0  0  0 
 31 36  1  0  0  0  0 
  7 15  1  6  0  0  0 
  5  4  2  0  0  0  0 
 15 16  1  0  0  0  0 
 31 34  1  0  0  0  0 
 35 32  1  0  0  0  0 
 32 33  1  0  0  0  0 
 33 34  1  0  0  0  0 
  4  1  1  0  0  0  0 
 16 17  2  0  0  0  0 
 35 36  2  0  0  0  0 
  5 10  1  0  0  0  0 
 36 37  1  0  0  0  0 
 17 18  1  0  0  0  0 
 37 38  2  0  0  0  0 
  6  7  1  0  0  0  0 
 38 39  1  0  0  0  0 
 18 19  2  0  0  0  0 
 39 40  2  0  0  0  0 
 40 35  1  0  0  0  0 
  7  8  1  0  0  0  0 
 34 41  1  0  0  0  0 
 19 20  1  0  0  0  0 
 38 42  1  0  0  0  0 
  8  9  1  0  0  0  0 
 42 43  1  0  0  0  0 
 20 21  2  0  0  0  0 
 39 44  1  0  0  0  0 
 21 16  1  0  0  0  0 
 44 45  1  0  0  0  0 
  9 10  1  0  0  0  0 
  8 46  1  0  0  0  0 
M  END
>  <MOLREGNO>
523225

>  <CHEMBLID>
CHEMBL442717

>  <SYNONYMS>
Dauricine

>  <MAX_PHASE>
0

>  <MOLWEIGHT>
624.77

>  <ALOGP>
7.25

>  <PSA>
72.86

>  <HBA>
8

>  <HBD>
1

>  <RO5>
2

>  <RTB>
10

>  <RO3>
N

>  <ACD_MOST_APKA>
9.31

>  <ACD_MOST_BPKA>
7.88

>  <ACD_LOGP>
4.34

>  <ACD_LOGD>
3.19

>  <AROMATIC_RINGS>
4

>  <HEAVY_ATOMS>
46

>  <QED_WEIGHTED>
.2

>  <HBA_LIPINSKI>
8

>  <HBD_LIPINSKI>
1

>  <NUM_LIPINSKI_RO5_VIOLATIONS>
1

>  <MW_MONOISOTOPIC>
624.3199

>  <MOLECULAR_SPECIES>
NEUTRAL

>  <FULL_MOLFORMULA>
C38H44N2O6

$$$$

  Mrv0541 04051115152D          

 23 25  0  0  0  0            999 V2000
   -2.6660   -0.8268    0.0000 C   0  0  0  0  0  0  0  0  0  0  0  0
   -1.9515   -1.2393    0.0000 C   0  0  0  0  0  0  0  0  0  0  0  0
   -1.2371   -0.8268    0.0000 C   0  0  0  0  0  0  0  0  0  0  0  0
   -1.2371   -0.0018    0.0000 C   0  0  0  0  0  0  0  0  0  0  0  0
   -1.9515    0.4107    0.0000 C   0  0  0  0  0  0  0  0  0  0  0  0
   -2.6660   -0.0018    0.0000 C   0  0  0  0  0  0  0  0  0  0  0  0
   -0.5226   -1.2393    0.0000 C   0  0  0  0  0  0  0  0  0  0  0  0
    0.1919   -0.8268    0.0000 C   0  0  0  0  0  0  0  0  0  0  0  0
    0.1919   -0.0018    0.0000 C   0  0  0  0  0  0  0  0  0  0  0  0
    0.9064    0.4107    0.0000 C   0  0  0  0  0  0  0  0  0  0  0  0
    0.9064    1.2357    0.0000 C   0  0  0  0  0  0  0  0  0  0  0  0
    1.6208    1.6482    0.0000 C   0  0  0  0  0  0  0  0  0  0  0  0
    2.3353    1.2357    0.0000 C   0  0  0  0  0  0  0  0  0  0  0  0
    2.3353    0.4107    0.0000 C   0  0  0  0  0  0  0  0  0  0  0  0
    1.6208   -0.0018    0.0000 C   0  0  0  0  0  0  0  0  0  0  0  0
   -0.5226    0.4107    0.0000 O   0  0  0  0  0  0  0  0  0  0  0  0
   -0.5226   -2.0643    0.0000 O   0  0  0  0  0  0  0  0  0  0  0  0
    3.0498   -0.0018    0.0000 O   0  0  0  0  0  0  0  0  0  0  0  0
    3.0498    1.6482    0.0000 O   0  0  0  0  0  0  0  0  0  0  0  0
    1.6208    2.4732    0.0000 O   0  0  0  0  0  0  0  0  0  0  0  0
    0.9064   -1.2393    0.0000 O   0  0  0  0  0  0  0  0  0  0  0  0
   -3.3805    0.4107    0.0000 O   0  0  0  0  0  0  0  0  0  0  0  0
   -1.9515   -2.0643    0.0000 O   0  0  0  0  0  0  0  0  0  0  0  0
  1  2  2  0  0  0  0
  1  6  1  0  0  0  0
  2  3  1  0  0  0  0
  2 23  1  0  0  0  0
  3  4  2  0  0  0  0
  3  7  1  0  0  0  0
  4  5  1  0  0  0  0
  4 16  1  0  0  0  0
  5  6  2  0  0  0  0
  6 22  1  0  0  0  0
  8  7  1  0  0  0  0
  7 17  2  0  0  0  0
  8  9  2  0  0  0  0
  8 21  1  0  0  0  0
  9 10  1  0  0  0  0
  9 16  1  0  0  0  0
 10 11  2  0  0  0  0
 10 15  1  0  0  0  0
 11 12  1  0  0  0  0
 12 13  2  0  0  0  0
 12 20  1  0  0  0  0
 13 14  1  0  0  0  0
 13 19  1  0  0  0  0
 14 15  2  0  0  0  0
 14 18  1  0  0  0  0
M  END
>  <MOLREGNO>
102920

>  <CHEMBLID>
CHEMBL164

>  <SYNONYMS>
NSC-407290

>  <MAX_PHASE>
0

>  <MOLWEIGHT>
318.24

>  <ALOGP>
1.39

>  <PSA>
147.68

>  <HBA>
8

>  <HBD>
6

>  <RO5>
1

>  <RTB>
1

>  <RO3>
N

>  <ACD_MOST_APKA>
6.3

>  <ACD_MOST_BPKA>


>  <ACD_LOGP>
1.21

>  <ACD_LOGD>
-.19

>  <AROMATIC_RINGS>
2

>  <HEAVY_ATOMS>
23

>  <QED_WEIGHTED>
.43

>  <HBA_LIPINSKI>
8

>  <HBD_LIPINSKI>
6

>  <NUM_LIPINSKI_RO5_VIOLATIONS>
1

>  <MW_MONOISOTOPIC>
318.0376

>  <MOLECULAR_SPECIES>
ACID

>  <FULL_MOLFORMULA>
C15H10O8

$$$$

  Mrv0541 04051115152D          

 17 18  0  0  0  0            999 V2000
    1.6815    1.4011    0.0000 C   0  0  0  0  0  0  0  0  0  0  0  0
    2.3959    0.9886    0.0000 C   0  0  0  0  0  0  0  0  0  0  0  0
    2.3959    0.1636    0.0000 C   0  0  0  0  0  0  0  0  0  0  0  0
    1.6815   -0.2489    0.0000 C   0  0  0  0  0  0  0  0  0  0  0  0
    0.9670    0.1636    0.0000 C   0  0  0  0  0  0  0  0  0  0  0  0
    0.9670    0.9886    0.0000 C   0  0  0  0  0  0  0  0  0  0  0  0
    0.2525   -0.2489    0.0000 C   0  0  0  0  0  0  0  0  0  0  0  0
   -0.4620    0.1636    0.0000 C   0  0  0  0  0  0  0  0  0  0  0  0
   -1.1764   -0.2489    0.0000 C   0  0  0  0  0  0  0  0  0  0  0  0
   -1.8909    0.1636    0.0000 C   0  0  0  0  0  0  0  0  0  0  0  0
   -2.6054   -0.2489    0.0000 C   0  0  0  0  0  0  0  0  0  0  0  0
   -2.6054   -1.0739    0.0000 C   0  0  0  0  0  0  0  0  0  0  0  0
   -1.8909   -1.4864    0.0000 C   0  0  0  0  0  0  0  0  0  0  0  0
   -1.1764   -1.0739    0.0000 C   0  0  0  0  0  0  0  0  0  0  0  0
   -3.3198   -1.4864    0.0000 O   0  0  0  0  0  0  0  0  0  0  0  0
    3.1104   -0.2489    0.0000 O   0  0  0  0  0  0  0  0  0  0  0  0
    1.6815    2.2261    0.0000 O   0  0  0  0  0  0  0  0  0  0  0  0
  1  2  2  0  0  0  0
  1  6  1  0  0  0  0
  1 17  1  0  0  0  0
  2  3  1  0  0  0  0
  3  4  2  0  0  0  0
  3 16  1  0  0  0  0
  4  5  1  0  0  0  0
  5  6  2  0  0  0  0
  5  7  1  0  0  0  0
  7  8  2  0  0  0  0
  8  9  1  0  0  0  0
 10  9  2  0  0  0  0
 14  9  1  0  0  0  0
 10 11  1  0  0  0  0
 11 12  2  0  0  0  0
 12 13  1  0  0  0  0
 12 15  1  0  0  0  0
 13 14  2  0  0  0  0
M  END
>  <MOLREGNO>
103658

>  <CHEMBLID>
CHEMBL165

>  <SYNONYMS>
Resveratrol | 3,5,4'-Trihydroxy-trans-stilbene | (E)-resveratrol

>  <MAX_PHASE>
0

>  <MOLWEIGHT>
228.24

>  <ALOGP>
3.09

>  <PSA>
60.69

>  <HBA>
3

>  <HBD>
3

>  <RO5>
0

>  <RTB>
2

>  <RO3>
N

>  <ACD_MOST_APKA>
9.22

>  <ACD_MOST_BPKA>


>  <ACD_LOGP>
3.02

>  <ACD_LOGD>
3.02

>  <AROMATIC_RINGS>
2

>  <HEAVY_ATOMS>
17

>  <QED_WEIGHTED>
.69

>  <HBA_LIPINSKI>
3

>  <HBD_LIPINSKI>
3

>  <NUM_LIPINSKI_RO5_VIOLATIONS>
0

>  <MW_MONOISOTOPIC>
228.0786

>  <MOLECULAR_SPECIES>
NEUTRAL

>  <FULL_MOLFORMULA>
C14H12O3

$$$$

  SciTegic01161211222D

 28 30  0  0  0  0            999 V2000
   -1.5010    4.9639    0.0000 C   0  0  2  0  0  0
   -2.2154    5.3764    0.0000 O   0  0
   -2.9299    4.9639    0.0000 C   0  0  1  0  0  0
   -2.9299    4.1389    0.0000 C   0  0  2  0  0  0
   -2.2154    3.7264    0.0000 C   0  0  1  0  0  0
   -1.5010    4.1389    0.0000 C   0  0  1  0  0  0
   -3.6444    5.3764    0.0000 C   0  0
   -4.3589    4.9639    0.0000 O   0  0
   -3.6444    3.7264    0.0000 O   0  0
   -2.2154    2.9014    0.0000 O   0  0
   -0.7865    3.7264    0.0000 O   0  0
   -0.7865    5.3764    0.0000 O   0  0
   -0.0720    4.9639    0.0000 C   0  0
   -0.0720    4.1389    0.0000 C   0  0
    0.6424    3.7264    0.0000 C   0  0
    1.3569    4.1389    0.0000 C   0  0
    1.3569    4.9640    0.0000 C   0  0
    0.6425    5.3765    0.0000 C   0  0
    2.0714    5.3765    0.0000 C   0  0
    2.7859    4.9640    0.0000 C   0  0
    3.5004    5.3764    0.0000 C   0  0
    4.2148    4.9639    0.0000 C   0  0
    4.9293    5.3764    0.0000 C   0  0
    4.9293    6.2014    0.0000 C   0  0
    4.2148    6.6140    0.0000 C   0  0
    3.5004    6.2015    0.0000 C   0  0
    5.6438    6.6139    0.0000 O   0  0
    0.6425    2.9014    0.0000 O   0  0
  1  2  1  0
  6  1  1  0
  2  3  1  0
  3  4  1  0
  4  5  1  0
  5  6  1  0
  3  7  1  1
  7  8  1  0
  4  9  1  6
  5 10  1  1
  6 11  1  6
  1 12  1  1
 12 13  1  0
 13 14  1  0
 13 18  2  0
 14 15  2  0
 15 16  1  0
 16 17  2  0
 17 18  1  0
 17 19  1  0
 19 20  2  0
 20 21  1  0
 21 22  1  0
 21 26  2  0
 22 23  2  0
 23 24  1  0
 24 25  2  0
 25 26  1  0
 24 27  1  0
 15 28  1  0
M  END
>  <MOLREGNO>
236507

>  <CHEMBLID>
CHEMBL142652

>  <SYNONYMS>
Piceid | (E)-Piceid | Trans-Piceid | (E)-Polydatin

>  <MAX_PHASE>
0

>  <MOLWEIGHT>
390.38

>  <ALOGP>
1.16

>  <PSA>
139.84

>  <HBA>
8

>  <HBD>
6

>  <RO5>
1

>  <RTB>
5

>  <RO3>
N

>  <ACD_MOST_APKA>
9.21

>  <ACD_MOST_BPKA>


>  <ACD_LOGP>
.41

>  <ACD_LOGD>
.4

>  <AROMATIC_RINGS>
2

>  <HEAVY_ATOMS>
28

>  <QED_WEIGHTED>
.42

>  <HBA_LIPINSKI>
8

>  <HBD_LIPINSKI>
6

>  <NUM_LIPINSKI_RO5_VIOLATIONS>
1

>  <MW_MONOISOTOPIC>
390.1315

>  <MOLECULAR_SPECIES>
NEUTRAL

>  <FULL_MOLFORMULA>
C20H22O8

$$$$

  CDK    9/16/09,9:19

 93102  0  0  0  0  0  0  0  0999 V2000
    8.5187  -20.8538    0.0000 O   0  0  0  0  0  0  0  0  0  0  0  0
    8.5520  -21.6794    0.0000 C   0  0  0  0  0  0  0  0  0  0  0  0
    9.2828  -22.0622    0.0000 C   0  0  0  0  0  0  0  0  0  0  0  0
    9.9803  -21.6195    0.0000 O   0  0  0  0  0  0  0  0  0  0  0  0
    9.3160  -22.8877    0.0000 C   0  0  0  0  0  0  0  0  0  0  0  0
   10.0468  -23.2706    0.0000 O   0  0  0  0  0  0  0  0  0  0  0  0
    8.6240  -23.3287    0.0000 C   0  0  0  0  0  0  0  0  0  0  0  0
    8.6572  -24.1542    0.0000 O   0  0  0  0  0  0  0  0  0  0  0  0
    7.8932  -22.9459    0.0000 C   0  0  0  0  0  0  0  0  0  0  0  0
    7.8581  -22.1240    0.0000 O   0  0  0  0  0  0  0  0  0  0  0  0
    7.0888  -18.3731    0.0000 O   0  0  0  0  0  0  0  0  0  0  0  0
    7.8144  -17.9781    0.0000 C   0  0  0  0  0  0  0  0  0  0  0  0
    7.8344  -17.1533    0.0000 C   0  0  0  0  0  0  0  0  0  0  0  0
    7.1288  -16.7236    0.0000 O   0  0  0  0  0  0  0  0  0  0  0  0
    8.5601  -16.7583    0.0000 C   0  0  0  0  0  0  0  0  0  0  0  0
    8.5801  -15.9336    0.0000 O   0  0  0  0  0  0  0  0  0  0  0  0
    9.2616  -17.1879    0.0000 C   0  0  0  0  0  0  0  0  0  0  0  0
    9.9872  -16.7929    0.0000 O   0  0  0  0  0  0  0  0  0  0  0  0
    9.2416  -18.0127    0.0000 C   0  0  0  0  0  0  0  0  0  0  0  0
    8.5201  -18.4078    0.0000 O   0  0  0  0  0  0  0  0  0  0  0  0
    9.9472  -18.4424    0.0000 C   0  0  0  0  0  0  0  0  0  0  0  0
   -0.0500  -19.1833    0.0000 C   0  0  0  0  0  0  0  0  0  0  0  0
   -0.0500  -20.0083    0.0000 C   0  0  0  0  0  0  0  0  0  0  0  0
    0.6620  -20.4167    0.0000 C   0  0  0  0  0  0  0  0  0  0  0  0
    0.6620  -18.7667    0.0000 C   0  0  0  0  0  0  0  0  0  0  0  0
    1.3740  -19.1833    0.0000 C   0  0  0  0  0  0  0  0  0  0  0  0
    1.3751  -20.0083    0.0000 C   0  0  0  0  0  0  0  0  0  0  0  0
    2.0861  -20.4176    0.0000 C   0  0  0  0  0  0  0  0  0  0  0  0
    2.8007  -20.0065    0.0000 C   0  0  0  0  0  0  0  0  0  0  0  0
    2.0840  -18.7676    0.0000 C   0  0  0  0  0  0  0  0  0  0  0  0
    2.7993  -19.1861    0.0000 C   0  0  0  0  0  0  0  0  0  0  0  0
    2.8072  -17.5317    0.0000 C   0  0  0  0  0  0  0  0  0  0  0  0
    2.0849  -17.9413    0.0000 C   0  0  0  0  0  0  0  0  0  0  0  0
    3.5224  -17.9502    0.0000 C   0  0  0  0  0  0  0  0  0  0  0  0
    3.5122  -18.7792    0.0000 C   0  0  0  0  0  0  0  0  0  0  0  0
    4.2211  -19.2002    0.0000 C   0  0  0  0  0  0  0  0  0  0  0  0
    4.9447  -18.7968    0.0000 C   0  0  0  0  0  0  0  0  0  0  0  0
    4.2415  -17.5422    0.0000 C   0  0  0  0  0  0  0  0  0  0  0  0
    4.9573  -17.9702    0.0000 C   0  0  0  0  0  0  0  0  0  0  0  0
    5.6819  -17.5665    0.0000 C   0  0  0  0  0  0  0  0  0  0  0  0
    5.6970  -16.7332    0.0000 C   0  0  0  0  0  0  0  0  0  0  0  0
    4.9811  -16.3052    0.0000 C   0  0  0  0  0  0  0  0  0  0  0  0
    4.2502  -16.7105    0.0000 C   0  0  0  0  0  0  0  0  0  0  0  0
    2.7917  -18.3583    0.0000 C   0  0  0  0  0  0  0  0  0  0  0  0
    1.3667  -18.3583    0.0000 C   0  0  0  0  0  0  0  0  0  0  0  0
   -0.7657  -18.7729    0.0000 O   0  0  0  0  0  0  0  0  0  0  0  0
    0.7000  -19.4333    0.0000 C   0  0  0  0  0  0  0  0  0  0  0  0
    3.5042  -19.6042    0.0000 C   0  0  0  0  0  0  0  0  0  0  0  0
    5.6667  -18.3792    0.0000 C   0  0  0  0  0  0  0  0  0  0  0  0
    5.6672  -19.2042    0.0000 O   0  0  0  0  0  0  0  0  0  0  0  0
    6.3809  -17.9662    0.0000 O   0  0  0  0  0  0  0  0  0  0  0  0
    1.3708  -20.8292    0.0000 H   0  0  0  0  0  0  0  0  0  0  0  0
    2.0792  -19.5917    0.0000 H   0  0  0  0  0  0  0  0  0  0  0  0
    4.3917  -15.7167    0.0000 C   0  0  0  0  0  0  0  0  0  0  0  0
    5.6917  -15.8875    0.0000 C   0  0  0  0  0  0  0  0  0  0  0  0
    4.2333  -18.3667    0.0000 H   0  0  0  0  0  0  0  0  0  0  0  0
   -0.7639  -20.4219    0.0000 O   0  0  0  0  0  0  0  0  0  0  0  0
    0.6438  -21.2333    0.0000 C   0  0  0  0  0  0  0  0  0  0  0  0
    1.3547  -21.6520    0.0000 O   0  0  0  0  0  0  0  0  0  0  0  0
   -0.7627  -21.2469    0.0000 C   0  0  0  0  0  0  0  0  0  0  0  0
   -1.4773  -21.6588    0.0000 O   0  0  0  0  0  0  0  0  0  0  0  0
   -1.4781  -22.4802    0.0000 C   0  0  0  0  0  0  0  0  0  0  0  0
   -0.7648  -22.8955    0.0000 C   0  0  0  0  0  0  0  0  0  0  0  0
   -0.0491  -22.4832    0.0000 C   0  0  0  0  0  0  0  0  0  0  0  0
   -0.0467  -21.6556    0.0000 C   0  0  0  0  0  0  0  0  0  0  0  0
   -1.5667  -21.0292    0.0000 H   0  0  0  0  0  0  0  0  0  0  0  0
   -0.0542  -20.8292    0.0000 O   0  0  0  0  0  0  0  0  0  0  0  0
    0.6645  -22.8971    0.0000 O   0  0  0  0  0  0  0  0  0  0  0  0
   -2.1935  -22.8910    0.0000 C   0  0  0  0  0  0  0  0  0  0  0  0
   -2.9070  -22.4768    0.0000 O   0  0  0  0  0  0  0  0  0  0  0  0
   -0.7668  -23.7205    0.0000 O   0  0  0  0  0  0  0  0  0  0  0  0
    6.3819  -19.6162    0.0000 C   0  0  0  0  0  0  0  0  0  0  0  0
    6.3775  -20.4381    0.0000 O   0  0  0  0  0  0  0  0  0  0  0  0
    7.0881  -20.8501    0.0000 C   0  0  0  0  0  0  0  0  0  0  0  0
    7.8047  -20.4406    0.0000 C   0  0  0  0  0  0  0  0  0  0  0  0
    7.8062  -19.6147    0.0000 C   0  0  0  0  0  0  0  0  0  0  0  0
    7.0910  -19.1981    0.0000 C   0  0  0  0  0  0  0  0  0  0  0  0
    5.6625  -20.0208    0.0000 H   0  0  0  0  0  0  0  0  0  0  0  0
    8.5218  -19.2041    0.0000 O   0  0  0  0  0  0  0  0  0  0  0  0
    7.0855  -21.6750    0.0000 C   0  0  0  0  0  0  0  0  0  0  0  0
    6.3697  -22.0853    0.0000 O   0  0  0  0  0  0  0  0  0  0  0  0
    7.8083  -18.8000    0.0000 H   0  0  0  0  0  0  0  0  0  0  0  0
    8.5458  -22.5042    0.0000 H   0  0  0  0  0  0  0  0  0  0  0  0
    9.2351  -19.6186    0.0000 C   0  0  0  0  0  0  0  0  0  0  0  0
    9.3210  -20.4371    0.0000 O   0  0  0  0  0  0  0  0  0  0  0  0
   10.1275  -20.6109    0.0000 C   0  0  0  0  0  0  0  0  0  0  0  0
   10.5420  -19.8975    0.0000 C   0  0  0  0  0  0  0  0  0  0  0  0
    9.9916  -19.2830    0.0000 C   0  0  0  0  0  0  0  0  0  0  0  0
    8.6458  -20.2000    0.0000 H   0  0  0  0  0  0  0  0  0  0  0  0
   10.5708  -18.6917    0.0000 O   0  0  0  0  0  0  0  0  0  0  0  0
   11.2542  -19.4792    0.0000 O   0  0  0  0  0  0  0  0  0  0  0  0
   11.1250  -20.4792    0.0000 C   0  0  0  0  0  0  0  0  0  0  0  0
   10.9124  -21.2763    0.0000 O   0  0  0  0  0  0  0  0  0  0  0  0
 26 45  1  1  0  0  0 
  2  1  1  0  0  0  0 
 22 46  1  1  0  0  0 
  2  3  1  0  0  0  0 
 24 47  1  0  0  0  0 
  3  4  1  6  0  0  0 
 35 48  1  6  0  0  0 
 22 25  1  0  0  0  0 
 39 49  1  1  0  0  0 
 23 24  1  0  0  0  0 
 49 50  1  0  0  0  0 
 24 27  1  0  0  0  0 
 49 51  2  0  0  0  0 
 26 25  1  0  0  0  0 
 27 52  1  6  0  0  0 
 26 27  1  0  0  0  0 
 30 53  1  6  0  0  0 
  3  5  1  0  0  0  0 
 42 54  1  0  0  0  0 
  5  6  1  1  0  0  0 
 42 55  1  0  0  0  0 
  5  7  1  0  0  0  0 
 38 56  1  1  0  0  0 
  7  8  1  6  0  0  0 
 23 57  1  1  0  0  0 
 26 30  1  0  0  0  0 
 24 58  1  6  0  0  0 
 27 28  1  0  0  0  0 
 58 59  1  0  0  0  0 
 28 29  1  0  0  0  0 
 57 60  1  0  0  0  0 
 60 61  1  0  0  0  0 
 29 31  1  0  0  0  0 
 30 31  1  0  0  0  0 
  7  9  1  0  0  0  0 
  9 10  1  0  0  0  0 
  2 10  1  0  0  0  0 
 60 65  1  0  0  0  0 
 61 62  1  0  0  0  0 
 62 63  1  0  0  0  0 
 63 64  1  0  0  0  0 
 64 65  1  0  0  0  0 
 12 11  1  0  0  0  0 
 60 66  1  6  0  0  0 
 30 33  1  0  0  0  0 
 65 67  1  6  0  0  0 
 31 35  1  0  0  0  0 
 64 68  1  1  0  0  0 
 34 32  2  0  0  0  0 
 62 69  1  1  0  0  0 
 32 33  1  0  0  0  0 
 69 70  1  0  0  0  0 
 34 35  1  0  0  0  0 
 63 71  1  6  0  0  0 
 12 13  1  0  0  0  0 
 50 72  1  0  0  0  0 
 72 73  1  0  0  0  0 
 13 14  1  6  0  0  0 
 13 15  1  0  0  0  0 
 15 16  1  6  0  0  0 
 34 38  1  0  0  0  0 
 35 36  1  0  0  0  0 
 72 77  1  0  0  0  0 
 73 74  1  0  0  0  0 
 74 75  1  0  0  0  0 
 75 76  1  0  0  0  0 
 76 77  1  0  0  0  0 
 36 37  1  0  0  0  0 
 72 78  1  6  0  0  0 
 77 11  1  6  0  0  0 
 75  1  1  6  0  0  0 
 37 39  1  0  0  0  0 
 76 79  1  1  0  0  0 
 38 39  1  0  0  0  0 
 74 80  1  1  0  0  0 
 15 17  1  0  0  0  0 
 80 81  1  0  0  0  0 
 17 18  1  1  0  0  0 
 12 82  1  6  0  0  0 
 17 19  1  0  0  0  0 
  2 83  1  6  0  0  0 
 19 20  1  0  0  0  0 
 79 84  1  0  0  0  0 
 84 85  1  0  0  0  0 
 19 21  1  6  0  0  0 
 12 20  1  0  0  0  0 
 38 43  1  0  0  0  0 
 39 40  1  0  0  0  0 
 85 86  1  0  0  0  0 
 86 87  1  0  0  0  0 
 87 88  1  0  0  0  0 
 88 84  1  0  0  0  0 
 40 41  1  0  0  0  0 
 84 89  1  6  0  0  0 
 41 42  1  0  0  0  0 
 88 90  1  6  0  0  0 
 42 43  1  0  0  0  0 
 87 91  1  6  0  0  0 
 22 23  1  0  0  0  0 
 87 92  1  0  0  0  0 
 31 44  1  1  0  0  0 
 92 93  1  0  0  0  0 
M  END
>  <MOLREGNO>
481682

>  <CHEMBLID>
CHEMBL518138

>  <SYNONYMS>
Polygalasaponin V

>  <MAX_PHASE>
0

>  <MOLWEIGHT>
1223.35

>  <ALOGP>


>  <PSA>


>  <HBA>


>  <HBD>


>  <RO5>


>  <RTB>


>  <RO3>


>  <ACD_MOST_APKA>


>  <ACD_MOST_BPKA>


>  <ACD_LOGP>


>  <ACD_LOGD>


>  <AROMATIC_RINGS>


>  <HEAVY_ATOMS>


>  <QED_WEIGHTED>


>  <HBA_LIPINSKI>


>  <HBD_LIPINSKI>


>  <NUM_LIPINSKI_RO5_VIOLATIONS>


>  <MW_MONOISOTOPIC>
1222.5982

>  <MOLECULAR_SPECIES>


>  <FULL_MOLFORMULA>
C58H94O27

$$$$

  Mrv0541 06041413182D          

 21 23  0  0  0  0            999 V2000
    7.9596   -7.0748    0.0000 C   0  0  0  0  0  0  0  0  0  0  0  0
    7.9596   -7.8998    0.0000 C   0  0  0  0  0  0  0  0  0  0  0  0
    7.2452   -8.3124    0.0000 C   0  0  0  0  0  0  0  0  0  0  0  0
    7.2452   -9.1373    0.0000 O   0  0  0  0  0  0  0  0  0  0  0  0
    6.5307   -7.8998    0.0000 C   0  0  0  0  0  0  0  0  0  0  0  0
    5.8163   -8.3123    0.0000 C   0  0  0  0  0  0  0  0  0  0  0  0
    5.1018   -7.8998    0.0000 C   0  0  0  0  0  0  0  0  0  0  0  0
    5.1018   -7.0748    0.0000 C   0  0  0  0  0  0  0  0  0  0  0  0
    5.8163   -6.6624    0.0000 C   0  0  0  0  0  0  0  0  0  0  0  0
    6.5307   -7.0748    0.0000 C   0  0  0  0  0  0  0  0  0  0  0  0
    7.2452   -6.6624    0.0000 O   0  0  0  0  0  0  0  0  0  0  0  0
    8.6741   -6.6624    0.0000 C   0  0  0  0  0  0  0  0  0  0  0  0
    8.6741   -5.8374    0.0000 C   0  0  0  0  0  0  0  0  0  0  0  0
    9.3885   -5.4249    0.0000 C   0  0  0  0  0  0  0  0  0  0  0  0
   10.1030   -5.8374    0.0000 C   0  0  0  0  0  0  0  0  0  0  0  0
   10.1030   -6.6624    0.0000 C   0  0  0  0  0  0  0  0  0  0  0  0
    9.3885   -7.0748    0.0000 C   0  0  0  0  0  0  0  0  0  0  0  0
   10.8174   -5.4249    0.0000 O   0  0  0  0  0  0  0  0  0  0  0  0
    4.3874   -6.6624    0.0000 O   0  0  0  0  0  0  0  0  0  0  0  0
    4.3874   -8.3123    0.0000 O   0  0  0  0  0  0  0  0  0  0  0  0
    5.8163   -9.1373    0.0000 O   0  0  0  0  0  0  0  0  0  0  0  0
  1  2  2  0  0  0  0
  2  3  1  0  0  0  0
  3  4  2  0  0  0  0
  3  5  1  0  0  0  0
  5  6  1  0  0  0  0
  6  7  2  0  0  0  0
  7  8  1  0  0  0  0
  8  9  2  0  0  0  0
  9 10  1  0  0  0  0
  5 10  2  0  0  0  0
 10 11  1  0  0  0  0
  1 11  1  0  0  0  0
  1 12  1  0  0  0  0
 12 13  1  0  0  0  0
 13 14  2  0  0  0  0
 14 15  1  0  0  0  0
 15 16  2  0  0  0  0
 16 17  1  0  0  0  0
 12 17  2  0  0  0  0
 15 18  1  0  0  0  0
  8 19  1  0  0  0  0
  7 20  1  0  0  0  0
  6 21  1  0  0  0  0
M  END
>  <MOLREGNO>
85648

>  <CHEMBLID>
CHEMBL55415

>  <SYNONYMS>
5,6,7,4'-Tetrahydroxyflavone | 6-Hydroxyapigenin | Scutellarein

>  <MAX_PHASE>
0

>  <MOLWEIGHT>
286.24

>  <ALOGP>
2.17

>  <PSA>
107.22

>  <HBA>
6

>  <HBD>
4

>  <RO5>
0

>  <RTB>
1

>  <RO3>
N

>  <ACD_MOST_APKA>
6.34

>  <ACD_MOST_BPKA>


>  <ACD_LOGP>
2.64

>  <ACD_LOGD>
1.23

>  <AROMATIC_RINGS>
2

>  <HEAVY_ATOMS>
21

>  <QED_WEIGHTED>
.6

>  <HBA_LIPINSKI>
6

>  <HBD_LIPINSKI>
4

>  <NUM_LIPINSKI_RO5_VIOLATIONS>
0

>  <MW_MONOISOTOPIC>
286.0477

>  <MOLECULAR_SPECIES>
ACID

>  <FULL_MOLFORMULA>
C15H10O6

$$$$

  CDK    9/16/09,9:20

 26 28  0  0  0  0  0  0  0  0999 V2000
   -3.6112   -0.9396    0.0000 C   0  0  0  0  0  0  0  0  0  0  0  0
   -3.6112   -1.7663    0.0000 C   0  0  0  0  0  0  0  0  0  0  0  0
   -2.9011   -2.1753    0.0000 C   0  0  0  0  0  0  0  0  0  0  0  0
   -2.9011   -0.5264    0.0000 C   0  0  0  0  0  0  0  0  0  0  0  0
   -2.1871   -0.9396    0.0000 C   0  0  0  0  0  0  0  0  0  0  0  0
   -2.1855   -1.7663    0.0000 C   0  0  0  0  0  0  0  0  0  0  0  0
   -1.4770   -2.1727    0.0000 C   0  0  0  0  0  0  0  0  0  0  0  0
   -0.7592   -1.7635    0.0000 C   0  0  0  0  0  0  0  0  0  0  0  0
   -0.7607   -0.9368    0.0000 C   0  0  0  0  0  0  0  0  0  0  0  0
   -1.4760   -0.5237    0.0000 C   0  0  0  0  0  0  0  0  0  0  0  0
   -3.3200   -2.8860    0.0000 C   0  0  0  0  0  0  0  0  0  0  0  0
   -2.4935   -2.8860    0.0000 C   0  0  0  0  0  0  0  0  0  0  0  0
   -2.1941   -0.1131    0.0000 C   0  0  0  0  0  0  0  0  0  0  0  0
   -1.4794    0.2988    0.0000 C   0  0  0  0  0  0  0  0  0  0  0  0
   -0.0472   -0.5255    0.0000 C   0  0  0  0  0  0  0  0  0  0  0  0
   -0.7674    0.7129    0.0000 C   0  0  0  0  0  0  0  0  0  0  0  0
   -0.7665    1.5395    0.0000 C   0  0  0  0  0  0  0  0  0  0  0  0
   -0.0963    2.0269    0.0000 C   0  0  0  0  0  0  0  0  0  0  0  0
   -0.3558    2.8122    0.0000 O   0  0  0  0  0  0  0  0  0  0  0  0
   -1.1825    2.8089    0.0000 C   0  0  0  0  0  0  0  0  0  0  0  0
   -1.4354    2.0257    0.0000 C   0  0  0  0  0  0  0  0  0  0  0  0
    0.6867    1.7730    0.0000 O   0  0  0  0  0  0  0  0  0  0  0  0
   -2.2172    1.7680    0.0000 O   0  0  0  0  0  0  0  0  0  0  0  0
   -2.1606   -2.5881    0.0000 H   0  0  0  0  0  0  0  0  0  0  0  0
   -4.3280   -2.1790    0.0000 O   0  0  0  0  0  0  0  0  0  0  0  0
   -2.9123   -3.5994    0.0000 O   0  0  0  0  0  0  0  0  0  0  0  0
  1  4  1  0  0  0  0 
  2  3  1  0  0  0  0 
  3  6  1  0  0  0  0 
  5  4  1  0  0  0  0 
  5  6  1  0  0  0  0 
  5 10  1  0  0  0  0 
  6  7  1  0  0  0  0 
  7  8  1  0  0  0  0 
  8  9  1  0  0  0  0 
  9 10  1  0  0  0  0 
  3 11  1  0  0  0  0 
  3 12  1  6  0  0  0 
  5 13  1  6  0  0  0 
 10 14  1  6  0  0  0 
  9 15  2  0  0  0  0 
 14 16  1  0  0  0  0 
 16 17  2  0  0  0  0 
 17 18  1  0  0  0  0 
 18 19  1  0  0  0  0 
 19 20  1  0  0  0  0 
 20 21  1  0  0  0  0 
 21 17  1  0  0  0  0 
 18 22  2  0  0  0  0 
 21 23  1  6  0  0  0 
  6 24  1  1  0  0  0 
  1  2  1  0  0  0  0 
  2 25  1  6  0  0  0 
 12 26  1  0  0  0  0 
M  END
>  <MOLREGNO>
308355

>  <CHEMBLID>
CHEMBL186141

>  <SYNONYMS>
Andrographolide

>  <MAX_PHASE>
0

>  <MOLWEIGHT>
350.45

>  <ALOGP>
2.06

>  <PSA>
86.99

>  <HBA>
5

>  <HBD>
3

>  <RO5>
0

>  <RTB>
3

>  <RO3>
N

>  <ACD_MOST_APKA>
12.36

>  <ACD_MOST_BPKA>


>  <ACD_LOGP>
.42

>  <ACD_LOGD>
.42

>  <AROMATIC_RINGS>
0

>  <HEAVY_ATOMS>
25

>  <QED_WEIGHTED>
.41

>  <HBA_LIPINSKI>
5

>  <HBD_LIPINSKI>
3

>  <NUM_LIPINSKI_RO5_VIOLATIONS>
0

>  <MW_MONOISOTOPIC>
350.2093

>  <MOLECULAR_SPECIES>
NEUTRAL

>  <FULL_MOLFORMULA>
C20H30O5

$$$$

  CDK    9/16/09,9:19

 25 27  0  0  0  0  0  0  0  0999 V2000
    7.8372   -2.8650    0.0000 C   0  0  0  0  0  0  0  0  0  0  0  0
    4.9729   -2.8696    0.0000 C   0  0  0  0  0  0  0  0  0  0  0  0
    4.9729   -3.6992    0.0000 C   0  0  0  0  0  0  0  0  0  0  0  0
    5.6873   -4.1121    0.0000 C   0  0  0  0  0  0  0  0  0  0  0  0
    5.6873   -2.4525    0.0000 C   0  0  0  0  0  0  0  0  0  0  0  0
    6.4063   -2.8696    0.0000 C   0  0  0  0  0  0  0  0  0  0  0  0
    6.4073   -3.6992    0.0000 C   0  0  0  0  0  0  0  0  0  0  0  0
    7.1223   -4.1107    0.0000 C   0  0  0  0  0  0  0  0  0  0  0  0
    7.8408   -3.6973    0.0000 C   0  0  0  0  0  0  0  0  0  0  0  0
    7.1202   -2.4516    0.0000 C   0  0  0  0  0  0  0  0  0  0  0  0
    6.3982   -2.0447    0.0000 C   0  0  0  0  0  0  0  0  0  0  0  0
    7.1180   -1.6267    0.0000 C   0  0  0  0  0  0  0  0  0  0  0  0
    7.8313   -1.2123    0.0000 C   0  0  0  0  0  0  0  0  0  0  0  0
    7.8291   -0.3874    0.0000 C   0  0  0  0  0  0  0  0  0  0  0  0
    6.6136   -4.4874    0.0000 H   0  0  0  0  0  0  0  0  0  0  0  0
    5.0966   -4.6936    0.0000 C   0  0  0  0  0  0  0  0  0  0  0  0
    8.5507   -2.4509    0.0000 C   0  0  0  0  0  0  0  0  0  0  0  0
    6.0909   -4.8213    0.0000 C   0  0  0  0  0  0  0  0  0  0  0  0
    5.6739   -5.5332    0.0000 O   0  0  0  0  0  0  0  0  0  0  0  0
    4.2584   -4.1114    0.0000 O   0  0  0  0  0  0  0  0  0  0  0  0
    8.4954    0.0968    0.0000 C   0  0  0  0  0  0  0  0  0  0  0  0
    8.2384    0.8806    0.0000 O   0  0  0  0  0  0  0  0  0  0  0  0
    7.4134    0.8784    0.0000 C   0  0  0  0  0  0  0  0  0  0  0  0
    7.1608    0.0932    0.0000 C   0  0  0  0  0  0  0  0  0  0  0  0
    9.2803   -0.1571    0.0000 O   0  0  0  0  0  0  0  0  0  0  0  0
 10 12  1  6  0  0  0 
 12 13  2  0  0  0  0 
  2  3  1  0  0  0  0 
 13 14  1  0  0  0  0 
  2  5  1  0  0  0  0 
  7 15  1  1  0  0  0 
  3  4  1  0  0  0  0 
  4 16  1  0  0  0  0 
  4  7  1  0  0  0  0 
  1 17  2  0  0  0  0 
  6 10  1  0  0  0  0 
  4 18  1  6  0  0  0 
  7  8  1  0  0  0  0 
 18 19  1  0  0  0  0 
  8  9  1  0  0  0  0 
  3 20  1  6  0  0  0 
 14 21  1  0  0  0  0 
  9  1  1  0  0  0  0 
  1 10  1  0  0  0  0 
  6  5  1  0  0  0  0 
  6 11  1  6  0  0  0 
 21 22  1  0  0  0  0 
 22 23  1  0  0  0  0 
 23 24  1  0  0  0  0 
 24 14  2  0  0  0  0 
  6  7  1  0  0  0  0 
 21 25  2  0  0  0  0 
M  END
>  <MOLREGNO>
308505

>  <CHEMBLID>
CHEMBL361568

>  <SYNONYMS>


>  <MAX_PHASE>
0

>  <MOLWEIGHT>
332.43

>  <ALOGP>
2.58

>  <PSA>
66.75

>  <HBA>
4

>  <HBD>
2

>  <RO5>
0

>  <RTB>
3

>  <RO3>
N

>  <ACD_MOST_APKA>


>  <ACD_MOST_BPKA>


>  <ACD_LOGP>
1.83

>  <ACD_LOGD>
1.83

>  <AROMATIC_RINGS>
0

>  <HEAVY_ATOMS>
24

>  <QED_WEIGHTED>
.62

>  <HBA_LIPINSKI>
4

>  <HBD_LIPINSKI>
2

>  <NUM_LIPINSKI_RO5_VIOLATIONS>
0

>  <MW_MONOISOTOPIC>
332.1988

>  <MOLECULAR_SPECIES>
NEUTRAL

>  <FULL_MOLFORMULA>
C20H28O4

$$$$

  CDK    9/16/09,9:19

 35 38  0  0  0  0  0  0  0  0999 V2000
   -1.5095   -5.4299    0.0000 O   0  0  0  0  0  0  0  0  0  0  0  0
   -2.2236   -5.8424    0.0000 C   0  0  0  0  0  0  0  0  0  0  0  0
   -2.2236   -6.6674    0.0000 C   0  0  0  0  0  0  0  0  0  0  0  0
   -1.5095   -7.0799    0.0000 O   0  0  0  0  0  0  0  0  0  0  0  0
   -2.9378   -7.0799    0.0000 C   0  0  0  0  0  0  0  0  0  0  0  0
   -2.9378   -7.9049    0.0000 O   0  0  0  0  0  0  0  0  0  0  0  0
   -3.6519   -6.6674    0.0000 C   0  0  0  0  0  0  0  0  0  0  0  0
   -4.3660   -7.0799    0.0000 O   0  0  0  0  0  0  0  0  0  0  0  0
   -3.6519   -5.8424    0.0000 C   0  0  0  0  0  0  0  0  0  0  0  0
   -2.9378   -5.4299    0.0000 O   0  0  0  0  0  0  0  0  0  0  0  0
   -4.3660   -5.4299    0.0000 C   0  0  0  0  0  0  0  0  0  0  0  0
   -4.3660   -4.6049    0.0000 O   0  0  0  0  0  0  0  0  0  0  0  0
    0.5454   -2.7041    0.0000 C   0  0  0  0  0  0  0  0  0  0  0  0
   -2.3191   -2.7087    0.0000 C   0  0  0  0  0  0  0  0  0  0  0  0
   -2.3191   -3.5384    0.0000 C   0  0  0  0  0  0  0  0  0  0  0  0
   -1.6047   -3.9509    0.0000 C   0  0  0  0  0  0  0  0  0  0  0  0
   -1.6047   -2.2916    0.0000 C   0  0  0  0  0  0  0  0  0  0  0  0
   -0.8856   -2.7087    0.0000 C   0  0  0  0  0  0  0  0  0  0  0  0
   -0.8846   -3.5384    0.0000 C   0  0  0  0  0  0  0  0  0  0  0  0
   -0.1696   -3.9499    0.0000 C   0  0  0  0  0  0  0  0  0  0  0  0
    0.5489   -3.5365    0.0000 C   0  0  0  0  0  0  0  0  0  0  0  0
   -0.1717   -2.2907    0.0000 C   0  0  0  0  0  0  0  0  0  0  0  0
   -0.8937   -1.8837    0.0000 C   0  0  0  0  0  0  0  0  0  0  0  0
   -0.1739   -1.4657    0.0000 C   0  0  0  0  0  0  0  0  0  0  0  0
    0.5394   -1.0514    0.0000 C   0  0  0  0  0  0  0  0  0  0  0  0
    0.5372   -0.2264    0.0000 C   0  0  0  0  0  0  0  0  0  0  0  0
    1.2079    0.2601    0.0000 C   0  0  0  0  0  0  0  0  0  0  0  0
    0.9508    1.0441    0.0000 O   0  0  0  0  0  0  0  0  0  0  0  0
    0.1258    1.0419    0.0000 C   0  0  0  0  0  0  0  0  0  0  0  0
   -0.1269    0.2566    0.0000 C   0  0  0  0  0  0  0  0  0  0  0  0
    1.9928    0.0059    0.0000 O   0  0  0  0  0  0  0  0  0  0  0  0
   -0.6784   -4.3266    0.0000 H   0  0  0  0  0  0  0  0  0  0  0  0
   -2.1954   -4.5329    0.0000 C   0  0  0  0  0  0  0  0  0  0  0  0
   -1.2009   -4.6612    0.0000 C   0  0  0  0  0  0  0  0  0  0  0  0
    1.2588   -2.2900    0.0000 C   0  0  0  0  0  0  0  0  0  0  0  0
 18 19  1  0  0  0  0 
  5  6  1  1  0  0  0 
  5  7  1  0  0  0  0 
  7  8  1  6  0  0  0 
  7  9  1  0  0  0  0 
  9 10  1  0  0  0  0 
 18 22  1  0  0  0  0 
 19 20  1  0  0  0  0 
 20 21  1  0  0  0  0 
 21 13  1  0  0  0  0 
 13 22  1  0  0  0  0 
  9 11  1  1  0  0  0 
 18 23  1  6  0  0  0 
 11 12  1  0  0  0  0 
 22 24  1  6  0  0  0 
  2 10  1  0  0  0  0 
 24 25  1  0  0  0  0 
 25 26  1  0  0  0  0 
 26 27  1  0  0  0  0 
 14 15  1  0  0  0  0 
  2  1  1  1  0  0  0 
  2  3  1  0  0  0  0 
  3  4  1  6  0  0  0 
 27 28  1  0  0  0  0 
 28 29  1  0  0  0  0 
 29 30  1  0  0  0  0 
 30 26  2  0  0  0  0 
  3  5  1  0  0  0  0 
 27 31  2  0  0  0  0 
 14 17  1  0  0  0  0 
 19 32  1  1  0  0  0 
 15 16  1  0  0  0  0 
 16 33  1  0  0  0  0 
 16 19  1  0  0  0  0 
 16 34  1  6  0  0  0 
 34  1  1  0  0  0  0 
 18 17  1  0  0  0  0 
 13 35  2  0  0  0  0 
M  END
>  <MOLREGNO>
481555

>  <CHEMBLID>
CHEMBL480853

>  <SYNONYMS>
Neoandrographolide

>  <MAX_PHASE>
0

>  <MOLWEIGHT>
480.59

>  <ALOGP>
2.38

>  <PSA>
125.68

>  <HBA>
8

>  <HBD>
4

>  <RO5>
0

>  <RTB>
7

>  <RO3>
N

>  <ACD_MOST_APKA>
12.93

>  <ACD_MOST_BPKA>


>  <ACD_LOGP>
1.57

>  <ACD_LOGD>
1.57

>  <AROMATIC_RINGS>
0

>  <HEAVY_ATOMS>
34

>  <QED_WEIGHTED>
.32

>  <HBA_LIPINSKI>
8

>  <HBD_LIPINSKI>
4

>  <NUM_LIPINSKI_RO5_VIOLATIONS>
0

>  <MW_MONOISOTOPIC>
480.2723

>  <MOLECULAR_SPECIES>
NEUTRAL

>  <FULL_MOLFORMULA>
C26H40O8

$$$$

  CDK    9/16/09,9:20

 24 26  0  0  0  0  0  0  0  0999 V2000
    6.9179   -8.3346    0.0000 O   0  0  0  0  0  0  0  0  0  0  0  0
    7.2640   -9.0814    0.0000 C   0  0  0  0  0  0  0  0  0  0  0  0
    7.8007  -10.2011    0.0000 C   0  0  0  0  0  0  0  0  0  0  0  0
    9.2277   -9.3460    0.0000 C   0  0  0  0  0  0  0  0  0  0  0  0
    8.0930   -9.0693    0.0000 C   0  0  0  0  0  0  0  0  0  0  0  0
    8.5140   -9.7736    0.0000 C   0  0  0  0  0  0  0  0  0  0  0  0
    8.4924   -8.3450    0.0000 O   0  0  0  0  0  0  0  0  0  0  0  0
    8.9443  -10.4867    0.0000 O   0  0  0  0  0  0  0  0  0  0  0  0
    5.4185   -7.3503    0.0000 O   0  0  0  0  0  0  0  0  0  0  0  0
    5.4191   -6.0192    0.0000 C   0  0  0  0  0  0  0  0  0  0  0  0
    4.9348   -6.6883    0.0000 C   0  0  0  0  0  0  0  0  0  0  0  0
    6.2020   -6.2732    0.0000 C   0  0  0  0  0  0  0  0  0  0  0  0
    6.2016   -7.0982    0.0000 C   0  0  0  0  0  0  0  0  0  0  0  0
    6.9177   -7.5101    0.0000 C   0  0  0  0  0  0  0  0  0  0  0  0
    6.9184   -5.8602    0.0000 C   0  0  0  0  0  0  0  0  0  0  0  0
    7.6306   -6.2727    0.0000 C   0  0  0  0  0  0  0  0  0  0  0  0
    7.6303   -7.0996    0.0000 C   0  0  0  0  0  0  0  0  0  0  0  0
    8.3437   -7.5083    0.0000 O   0  0  0  0  0  0  0  0  0  0  0  0
    9.0580   -7.0991    0.0000 C   0  0  0  0  0  0  0  0  0  0  0  0
    9.0583   -6.2722    0.0000 C   0  0  0  0  0  0  0  0  0  0  0  0
    8.3444   -5.8629    0.0000 C   0  0  0  0  0  0  0  0  0  0  0  0
    9.7775   -7.5203    0.0000 O   0  0  0  0  0  0  0  0  0  0  0  0
    6.9192   -5.0357    0.0000 O   0  0  0  0  0  0  0  0  0  0  0  0
    7.6337   -4.6242    0.0000 C   0  0  0  0  0  0  0  0  0  0  0  0
  2  5  1  0  0  0  0 
  6  3  1  0  0  0  0 
  1  2  1  0  0  0  0 
 12 15  1  0  0  0  0 
 13 14  1  0  0  0  0 
 14 17  2  0  0  0  0 
 16 15  2  0  0  0  0 
 16 17  1  0  0  0  0 
  6  8  1  0  0  0  0 
  9 13  1  0  0  0  0 
  6  4  1  0  0  0  0 
  6  5  1  0  0  0  0 
  5  7  1  1  0  0  0 
 12 10  1  0  0  0  0 
 16 21  1  0  0  0  0 
 17 18  1  0  0  0  0 
 18 19  1  0  0  0  0 
 19 20  1  0  0  0  0 
 20 21  2  0  0  0  0 
 10 11  2  0  0  0  0 
 19 22  2  0  0  0  0 
 14  1  1  0  0  0  0 
 11  9  1  0  0  0  0 
 15 23  1  0  0  0  0 
 12 13  2  0  0  0  0 
 23 24  1  0  0  0  0 
M  END
>  <MOLREGNO>
444165

>  <CHEMBLID>
CHEMBL508648

>  <SYNONYMS>
Byakangelicin | Byakangelicine

>  <MAX_PHASE>
0

>  <MOLWEIGHT>
334.32

>  <ALOGP>
1.7

>  <PSA>
98.36

>  <HBA>
6

>  <HBD>
2

>  <RO5>
0

>  <RTB>
5

>  <RO3>
N

>  <ACD_MOST_APKA>
13.67

>  <ACD_MOST_BPKA>


>  <ACD_LOGP>
.95

>  <ACD_LOGD>
.95

>  <AROMATIC_RINGS>
2

>  <HEAVY_ATOMS>
24

>  <QED_WEIGHTED>
.64

>  <HBA_LIPINSKI>
7

>  <HBD_LIPINSKI>
2

>  <NUM_LIPINSKI_RO5_VIOLATIONS>
0

>  <MW_MONOISOTOPIC>
334.1053

>  <MOLECULAR_SPECIES>
NEUTRAL

>  <FULL_MOLFORMULA>
C17H18O7

$$$$

  Mrv0541 05231417222D          

 12 13  0  0  0  0            999 V2000
    9.4803   -4.9243    0.0000 O   0  0  0  0  0  0  0  0  0  0  0  0
    8.7753   -4.5158    0.0000 C   0  0  0  0  0  0  0  0  0  0  0  0
    8.0662   -4.9243    0.0000 O   0  0  0  0  0  0  0  0  0  0  0  0
    8.7753   -3.6986    0.0000 C   0  0  0  0  0  0  0  0  0  0  0  0
    9.4803   -3.2900    0.0000 C   0  0  0  0  0  0  0  0  0  0  0  0
   10.1894   -3.6986    0.0000 C   0  0  0  0  0  0  0  0  0  0  0  0
   10.8984   -3.2900    0.0000 C   0  0  0  0  0  0  0  0  0  0  0  0
   11.6034   -3.6986    0.0000 C   0  0  0  0  0  0  0  0  0  0  0  0
   11.6034   -4.5158    0.0000 C   0  0  0  0  0  0  0  0  0  0  0  0
   10.8984   -4.9243    0.0000 C   0  0  0  0  0  0  0  0  0  0  0  0
   10.1894   -4.5158    0.0000 C   0  0  0  0  0  0  0  0  0  0  0  0
   12.3125   -4.9243    0.0000 O   0  0  0  0  0  0  0  0  0  0  0  0
  1  2  1  0  0  0  0
  2  3  2  0  0  0  0
  2  4  1  0  0  0  0
  4  5  2  0  0  0  0
  5  6  1  0  0  0  0
  6  7  1  0  0  0  0
  7  8  2  0  0  0  0
  8  9  1  0  0  0  0
  9 10  2  0  0  0  0
 10 11  1  0  0  0  0
  1 11  1  0  0  0  0
  6 11  2  0  0  0  0
  9 12  1  0  0  0  0
M  END
>  <MOLREGNO>
78197

>  <CHEMBLID>
CHEMBL51628

>  <SYNONYMS>
NSC-019790

>  <MAX_PHASE>
0

>  <MOLWEIGHT>
162.14

>  <ALOGP>
1.66

>  <PSA>
46.53

>  <HBA>
3

>  <HBD>
1

>  <RO5>
0

>  <RTB>
0

>  <RO3>
Y

>  <ACD_MOST_APKA>
7.89

>  <ACD_MOST_BPKA>


>  <ACD_LOGP>
1.58

>  <ACD_LOGD>
1.46

>  <AROMATIC_RINGS>
1

>  <HEAVY_ATOMS>
12

>  <QED_WEIGHTED>
.47

>  <HBA_LIPINSKI>
3

>  <HBD_LIPINSKI>
1

>  <NUM_LIPINSKI_RO5_VIOLATIONS>
0

>  <MW_MONOISOTOPIC>
162.0317

>  <MOLECULAR_SPECIES>
NEUTRAL

>  <FULL_MOLFORMULA>
C9H6O3

$$$$

  SciTegic01161211252D

 29 31  0  0  0  0            999 V2000
   12.3162   -2.4667    0.0000 O   0  0
   13.0083   -2.9062    0.0000 C   0  0  1  0  0  0
   13.7392   -2.5235    0.0000 C   0  0  2  0  0  0
   13.7725   -1.6980    0.0000 O   0  0
   14.4367   -2.9663    0.0000 C   0  0  1  0  0  0
   15.1675   -2.5836    0.0000 O   0  0
   14.4034   -3.7918    0.0000 C   0  0  2  0  0  0
   15.0989   -4.2310    0.0000 O   0  0
   13.6725   -4.1746    0.0000 C   0  0  2  0  0  0
   12.9750   -3.7318    0.0000 O   0  0
   13.6372   -4.9964    0.0000 C   0  0
   12.9064   -5.3791    0.0000 O   0  0
   12.3162   -1.6417    0.0000 C   0  0  2  0  0  0
   13.0282   -1.2333    0.0000 O   0  0
   13.0282   -0.4083    0.0000 C   0  0
   12.3162    0.0083    0.0000 C   0  0
   11.6042   -1.2333    0.0000 C   0  0  1  0  0  0
   11.6042   -0.4038    0.0000 C   0  0  2  0  0  0
   10.8152   -0.1473    0.0000 C   0  0
   10.3275   -0.8185    0.0000 C   0  0  1  0  0  0
   10.8152   -1.4896    0.0000 C   0  0  2  0  0  0
   11.6000    0.4250    0.0000 H   0  0
   11.6000   -2.0583    0.0000 H   0  0
   12.3182    0.8333    0.0000 C   0  0
   13.0336    1.2441    0.0000 O   0  0
   11.6047    1.2475    0.0000 O   0  0
   12.2875   -3.3125    0.0000 H   0  0
    9.5025   -0.8185    0.0000 O   0  0
   10.5602   -2.2742    0.0000 C   0  0
 18 16  1  0
 17 13  1  0
 13 14  1  0
 14 15  1  0
 15 16  2  0
 17 18  1  0
  3  5  1  0
  5  6  1  1
  5  7  1  0
  7  8  1  6
  7  9  1  0
 18 19  1  0
 19 20  1  0
 20 21  1  0
 21 17  1  0
  9 10  1  0
 18 22  1  1
  9 11  1  1
 17 23  1  1
 11 12  1  0
 16 24  1  0
  2 10  1  0
 24 25  1  0
 24 26  2  0
 13  1  1  1
  2  1  1  0
  2 27  1  6
  2  3  1  0
 20 28  1  1
  3  4  1  6
 21 29  1  1
M  END
>  <MOLREGNO>
611093

>  <CHEMBLID>
CHEMBL1081585

>  <SYNONYMS>
Loganic Acid

>  <MAX_PHASE>
0

>  <MOLWEIGHT>
376.36

>  <ALOGP>
-2.12

>  <PSA>
166.14

>  <HBA>
10

>  <HBD>
6

>  <RO5>
1

>  <RTB>
4

>  <RO3>
N

>  <ACD_MOST_APKA>
4.55

>  <ACD_MOST_BPKA>


>  <ACD_LOGP>
-2.41

>  <ACD_LOGD>
-5.22

>  <AROMATIC_RINGS>
0

>  <HEAVY_ATOMS>
26

>  <QED_WEIGHTED>
.32

>  <HBA_LIPINSKI>
10

>  <HBD_LIPINSKI>
6

>  <NUM_LIPINSKI_RO5_VIOLATIONS>
1

>  <MW_MONOISOTOPIC>
376.1369

>  <MOLECULAR_SPECIES>
ACID

>  <FULL_MOLFORMULA>
C16H24O10

$$$$

  SciTegic09261414532D

 34 37  0  0  0  0            999 V2000
    0.6043  -17.2768    0.0000 C   0  0
    1.4296  -17.2768    0.0000 C   0  0  1  0  0  0
    1.0170  -16.5621    0.0000 C   0  0
    1.4296  -18.1021    0.0000 C   0  0  1  0  0  0
    2.1419  -18.5105    0.0000 C   0  0
    2.8542  -18.1021    0.0000 C   0  0
    2.1419  -16.8599    0.0000 C   0  0  2  0  0  0
    2.8547  -17.2759    0.0000 C   0  0  2  0  0  0
    2.8606  -15.6283    0.0000 C   0  0
    2.1417  -16.0370    0.0000 C   0  0
    3.5734  -16.0441    0.0000 C   0  0
    3.5680  -16.8683    0.0000 C   0  0  1  0  0  0
    4.2750  -17.2828    0.0000 C   0  0
    4.9921  -16.8777    0.0000 C   0  0
    4.2859  -15.6345    0.0000 C   0  0  1  0  0  0
    4.9931  -16.0562    0.0000 C   0  0  2  0  0  0
    5.7079  -15.6567    0.0000 C   0  0
    5.7217  -14.8341    0.0000 C   0  0
    5.0145  -14.4124    0.0000 C   0  0  2  0  0  0
    4.2935  -14.8135    0.0000 C   0  0  2  0  0  0
    5.0269  -13.5872    0.0000 C   0  0
    3.5840  -14.3918    0.0000 C   0  0
    4.2807  -16.4557    0.0000 H   0  0
    5.7019  -16.4682    0.0000 C   0  0
    0.7155  -18.5158    0.0000 C   0  0
    0.7167  -19.3411    0.0000 C   0  0
    0.1918  -16.5621    0.0000 C   0  0
   -0.6335  -16.5621    0.0000 C   0  0
   -1.0534  -15.8459    0.0000 O   0  0
   -1.0526  -17.2765    0.0000 O   0  0
    0.0002  -18.1041    0.0000 C   0  0
    2.1340  -17.6852    0.0000 H   0  0
    2.8468  -16.4473    0.0000 C   0  0
    3.5637  -17.6895    0.0000 C   0  0
  2  1  1  0
  2  3  1  1
  2  4  1  0
  2  7  1  0
  4  5  1  0
  5  6  1  0
  6  8  1  0
  7  8  1  0
  7 10  1  0
  8 12  1  0
 11  9  2  0
  9 10  1  0
 11 12  1  0
 11 15  1  0
 12 13  1  0
 13 14  1  0
 14 16  1  0
 15 16  1  0
 15 20  1  0
 16 17  1  0
 17 18  1  0
 18 19  1  0
 19 20  1  0
 19 21  1  6
 20 22  1  1
 15 23  1  1
 16 24  1  1
  4 25  1  1
 25 26  2  0
  1 27  1  0
 27 28  1  0
 28 29  1  0
 28 30  2  0
 25 31  1  0
  7 32  1  6
  8 33  1  1
 12 34  1  6
M  END
>  <MOLREGNO>
1759645

>  <CHEMBLID>
CHEMBL3289101

>  <SYNONYMS>


>  <MAX_PHASE>
0

>  <MOLWEIGHT>
440.7

>  <ALOGP>
7.6

>  <PSA>
37.29

>  <HBA>
2

>  <HBD>
1

>  <RO5>
1

>  <RTB>
4

>  <RO3>
N

>  <ACD_MOST_APKA>
13.93

>  <ACD_MOST_BPKA>
8.06

>  <ACD_LOGP>
2.54

>  <ACD_LOGD>
1.71

>  <AROMATIC_RINGS>
0

>  <HEAVY_ATOMS>
32

>  <QED_WEIGHTED>
.46

>  <HBA_LIPINSKI>
2

>  <HBD_LIPINSKI>
1

>  <NUM_LIPINSKI_RO5_VIOLATIONS>
1

>  <MW_MONOISOTOPIC>
440.3654

>  <MOLECULAR_SPECIES>
NEUTRAL

>  <FULL_MOLFORMULA>
C30H48O2

$$$$

  CDK    8/10/10,12:22

 31 34  0  0  0  0  0  0  0  0999 V2000
   -1.9500   -1.2542    0.0000 C   0  0  0  0  0  0  0  0  0  0  0  0
   -1.2375   -1.6667    0.0000 C   0  0  0  0  0  0  0  0  0  0  0  0
   -1.2375   -2.4917    0.0000 C   0  0  0  0  0  0  0  0  0  0  0  0
   -1.9500   -0.4292    0.0000 C   0  0  0  0  0  0  0  0  0  0  0  0
   -0.5000   -1.2292    0.0000 O   0  0  0  0  0  0  0  0  0  0  0  0
   -0.5000   -2.9375    0.0000 C   0  0  0  0  0  0  0  0  0  0  0  0
   -1.2375   -0.0167    0.0000 O   0  0  0  0  0  0  0  0  0  0  0  0
    0.2417   -1.6500    0.0000 C   0  0  0  0  0  0  0  0  0  0  0  0
   -2.6708   -0.0167    0.0000 C   0  0  0  0  0  0  0  0  0  0  0  0
    0.2417   -2.5125    0.0000 C   0  0  0  0  0  0  0  0  0  0  0  0
   -2.6708    0.8083    0.0000 C   0  0  0  0  0  0  0  0  0  0  0  0
   -2.6708   -1.6667    0.0000 C   0  0  0  0  0  0  0  0  0  0  0  0
   -1.9500   -2.9042    0.0000 C   0  0  0  0  0  0  0  0  0  0  0  0
   -1.9500    1.2208    0.0000 C   0  0  0  0  0  0  0  0  0  0  0  0
   -1.2375    0.8083    0.0000 C   0  0  0  0  0  0  0  0  0  0  0  0
   -2.6708   -2.4917    0.0000 C   0  0  0  0  0  0  0  0  0  0  0  0
    0.9542   -1.2375    0.0000 C   0  0  0  0  0  0  0  0  0  0  0  0
   -0.5125   -3.7542    0.0000 O   0  0  0  0  0  0  0  0  0  0  0  0
   -3.3833   -0.4292    0.0000 O   0  0  0  0  0  0  0  0  0  0  0  0
    1.6750   -1.6417    0.0000 C   0  0  0  0  0  0  0  0  0  0  0  0
    0.9542   -0.4125    0.0000 C   0  0  0  0  0  0  0  0  0  0  0  0
   -3.3833    1.2208    0.0000 O   0  0  0  0  0  0  0  0  0  0  0  0
   -3.3833   -1.2542    0.0000 O   0  0  0  0  0  0  0  0  0  0  0  0
   -1.9500   -3.7292    0.0000 O   0  0  0  0  0  0  0  0  0  0  0  0
   -1.9500    2.0458    0.0000 O   0  0  0  0  0  0  0  0  0  0  0  0
    2.3833   -0.4042    0.0000 C   0  0  0  0  0  0  0  0  0  0  0  0
    1.6667    0.0083    0.0000 C   0  0  0  0  0  0  0  0  0  0  0  0
    2.3917   -1.2292    0.0000 C   0  0  0  0  0  0  0  0  0  0  0  0
   -0.5250    1.2208    0.0000 C   0  0  0  0  0  0  0  0  0  0  0  0
    3.1000    0.0083    0.0000 O   0  0  0  0  0  0  0  0  0  0  0  0
   -0.5250    2.0458    0.0000 O   0  0  0  0  0  0  0  0  0  0  0  0
  2  1  1  0  0  0  0 
  3  2  2  0  0  0  0 
  4  1  1  1  0  0  0 
  5  2  1  0  0  0  0 
  6  3  1  0  0  0  0 
  7  4  1  0  0  0  0 
  8  5  1  0  0  0  0 
  9  4  1  0  0  0  0 
 10  8  2  0  0  0  0 
 11  9  1  0  0  0  0 
 12  1  2  0  0  0  0 
 13 16  2  0  0  0  0 
 14 11  1  0  0  0  0 
 15  7  1  0  0  0  0 
 16 12  1  0  0  0  0 
 17  8  1  0  0  0  0 
 18  6  2  0  0  0  0 
  9 19  1  6  0  0  0 
 20 17  2  0  0  0  0 
 21 17  1  0  0  0  0 
 11 22  1  1  0  0  0 
 23 12  1  0  0  0  0 
 24 13  1  0  0  0  0 
 14 25  1  6  0  0  0 
 26 27  1  0  0  0  0 
 27 21  2  0  0  0  0 
 28 20  1  0  0  0  0 
 15 29  1  1  0  0  0 
 30 26  1  0  0  0  0 
 31 29  1  0  0  0  0 
  3 13  1  0  0  0  0 
 14 15  1  0  0  0  0 
  6 10  1  0  0  0  0 
 28 26  2  0  0  0  0 
M  END
>  <MOLREGNO>
445852

>  <CHEMBLID>
CHEMBL487417

>  <SYNONYMS>
Vitexin

>  <MAX_PHASE>
0

>  <MOLWEIGHT>
432.38

>  <ALOGP>
.02

>  <PSA>
177.14

>  <HBA>
10

>  <HBD>
7

>  <RO5>
1

>  <RTB>
3

>  <RO3>
N

>  <ACD_MOST_APKA>
6.27

>  <ACD_MOST_BPKA>


>  <ACD_LOGP>
-.01

>  <ACD_LOGD>
-1.63

>  <AROMATIC_RINGS>
2

>  <HEAVY_ATOMS>
31

>  <QED_WEIGHTED>
.35

>  <HBA_LIPINSKI>
10

>  <HBD_LIPINSKI>
7

>  <NUM_LIPINSKI_RO5_VIOLATIONS>
1

>  <MW_MONOISOTOPIC>
432.1056

>  <MOLECULAR_SPECIES>
ACID

>  <FULL_MOLFORMULA>
C21H20O10

$$$$

  SciTegic12231509382D

 37 41  0  0  0  0            999 V2000
   -3.0250  -10.3042    0.0000 C   0  0
   -3.2375   -9.5083    0.0000 C   0  0
   -3.8205  -10.0903    0.0000 C   0  0
    0.6458   -4.6583    0.0000 C   0  0
    1.0625   -5.3750    0.0000 C   0  0
    1.4748   -4.6558    0.0000 C   0  0
   -3.9458   -8.2750    0.0000 C   0  0  1  0  0  0
   -3.9458   -9.1000    0.0000 C   0  0  2  0  0  0
   -3.2338   -7.8583    0.0000 C   0  0
   -2.5218   -8.2750    0.0000 C   0  0  1  0  0  0
   -2.5207   -9.1000    0.0000 C   0  0  1  0  0  0
   -1.8097   -9.5093    0.0000 C   0  0
   -1.0951   -9.0982    0.0000 C   0  0
   -1.8118   -7.8593    0.0000 C   0  0  2  0  0  0
   -1.0943   -8.2738    0.0000 C   0  0  2  0  0  0
   -1.0955   -6.6194    0.0000 C   0  0
   -1.8155   -7.0329    0.0000 C   0  0
   -0.3780   -7.0339    0.0000 C   0  0
   -0.3790   -7.8626    0.0000 C   0  0  1  0  0  0
    0.3341   -8.2755    0.0000 C   0  0
    1.0528   -7.8644    0.0000 C   0  0
    0.3362   -6.6183    0.0000 C   0  0  1  0  0  0
    1.0534   -7.0405    0.0000 C   0  0  2  0  0  0
    1.7736   -6.6328    0.0000 C   0  0
    1.7829   -5.8012    0.0000 C   0  0
    0.3393   -5.7884    0.0000 C   0  0
    0.3292   -7.4417    0.0000 H   0  0
    1.7625   -7.4500    0.0000 C   0  0
   -1.1000   -7.4458    0.0000 C   0  0
   -4.6597   -9.5135    0.0000 O   0  0
   -4.6615   -7.8646    0.0000 O   0  0
   -2.5250   -9.9208    0.0000 H   0  0
   -1.8167   -8.6833    0.0000 H   0  0
   -0.3833   -8.6875    0.0000 C   0  0
   -2.5292   -7.4500    0.0000 C   0  0
    1.7624   -8.2750    0.0000 O   0  0
    2.4770   -7.0376    0.0000 O   0  0
 18 19  1  0
  2 11  1  0
 10  9  1  0
 10 11  1  0
  2  1  1  0
 18 22  1  0
 19 20  1  0
 20 21  1  0
 21 23  1  0
 22 23  1  0
  3  2  1  0
  7  8  1  0
  5  4  1  0
 10 14  1  0
 11 12  1  0
 22 26  1  0
 23 24  1  0
 24 25  1  0
 25  5  1  0
  5 26  1  0
 12 13  1  0
 22 27  1  1
 13 15  1  0
 23 28  1  1
 14 15  1  0
 15 29  1  1
  6  5  1  0
  8 30  1  1
  7 31  1  6
  7  9  1  0
 11 32  1  6
  8  2  1  0
 14 33  1  6
 14 17  1  0
 19 34  1  6
 15 19  1  0
 10 35  1  1
 18 16  2  0
 28 36  2  0
 16 17  1  0
 28 37  1  0
M  END
>  <MOLREGNO>
338843

>  <CHEMBLID>
CHEMBL201515

>  <SYNONYMS>
Maslinic Acid | Sodium Maslinate

>  <MAX_PHASE>
0

>  <MOLWEIGHT>
472.7

>  <ALOGP>
5.48

>  <PSA>
77.76

>  <HBA>
4

>  <HBD>
3

>  <RO5>
1

>  <RTB>
1

>  <RO3>
N

>  <ACD_MOST_APKA>
4.63

>  <ACD_MOST_BPKA>


>  <ACD_LOGP>
6.96

>  <ACD_LOGD>
4.23

>  <AROMATIC_RINGS>
0

>  <HEAVY_ATOMS>
34

>  <QED_WEIGHTED>
.44

>  <HBA_LIPINSKI>
4

>  <HBD_LIPINSKI>
3

>  <NUM_LIPINSKI_RO5_VIOLATIONS>
1

>  <MW_MONOISOTOPIC>
472.3553

>  <MOLECULAR_SPECIES>
ACID

>  <FULL_MOLFORMULA>
C30H48O4

$$$$

  SciTegic12231509382D

 10 10  0  0  0  0            999 V2000
   -2.5233   -9.8882    0.0000 C   0  0
   -3.3483   -9.8882    0.0000 C   0  0
   -3.7587  -10.6005    0.0000 C   0  0
   -4.5838  -10.6005    0.0000 C   0  0
   -4.9985   -9.8882    0.0000 C   0  0
   -4.5838   -9.1717    0.0000 N   0  3
   -3.7587   -9.1717    0.0000 C   0  0
   -2.1086   -9.1717    0.0000 O   0  0
   -2.1086  -10.6005    0.0000 O   0  5
   -4.9988   -8.4610    0.0000 C   0  0
  1  2  1  0
  2  3  1  0
  3  4  2  0
  4  5  1  0
  5  6  2  0
  6  7  1  0
  2  7  2  0
  1  8  2  0
  1  9  1  0
  6 10  1  0
M  CHG  2   6   1   9  -1
M  END
>  <MOLREGNO>
261381

>  <CHEMBLID>
CHEMBL350675

>  <SYNONYMS>
1-Methyl-Nicotinic Acid Anion(Trigonelline) | Trigonelline HCl | Trigonelline Hydrochloride | Trigonelline

>  <MAX_PHASE>
0

>  <MOLWEIGHT>
137.14

>  <ALOGP>
-.41

>  <PSA>
44.01

>  <HBA>
2

>  <HBD>
0

>  <RO5>
0

>  <RTB>
1

>  <RO3>
Y

>  <ACD_MOST_APKA>


>  <ACD_MOST_BPKA>
6.32

>  <ACD_LOGP>
4.93

>  <ACD_LOGD>
4.92

>  <AROMATIC_RINGS>
1

>  <HEAVY_ATOMS>
10

>  <QED_WEIGHTED>
.49

>  <HBA_LIPINSKI>
3

>  <HBD_LIPINSKI>
0

>  <NUM_LIPINSKI_RO5_VIOLATIONS>
0

>  <MW_MONOISOTOPIC>
137.0477

>  <MOLECULAR_SPECIES>
NEUTRAL

>  <FULL_MOLFORMULA>
C7H7NO2

$$$$

  CDK    9/16/09,9:20

 29 31  0  0  0  0  0  0  0  0999 V2000
    8.5417   -2.2000    0.0000 C   0  0  0  0  0  0  0  0  0  0  0  0
    8.5405   -3.0275    0.0000 C   0  0  0  0  0  0  0  0  0  0  0  0
    9.2534   -3.4405    0.0000 C   0  0  0  0  0  0  0  0  0  0  0  0
    9.2514   -1.7872    0.0000 C   0  0  0  0  0  0  0  0  0  0  0  0
    9.9696   -2.1959    0.0000 C   0  0  0  0  0  0  0  0  0  0  0  0
    9.9687   -3.0250    0.0000 C   0  0  0  0  0  0  0  0  0  0  0  0
   10.6823   -3.4379    0.0000 C   0  0  0  0  0  0  0  0  0  0  0  0
   11.4013   -3.0265    0.0000 C   0  0  0  0  0  0  0  0  0  0  0  0
   11.4023   -2.1975    0.0000 C   0  0  0  0  0  0  0  0  0  0  0  0
   10.6841   -1.7799    0.0000 O   0  0  0  0  0  0  0  0  0  0  0  0
   10.6803   -4.2629    0.0000 O   0  0  0  0  0  0  0  0  0  0  0  0
   12.1176   -1.7865    0.0000 C   0  0  0  0  0  0  0  0  0  0  0  0
   12.8283   -2.2012    0.0000 C   0  0  0  0  0  0  0  0  0  0  0  0
   13.5431   -1.7908    0.0000 C   0  0  0  0  0  0  0  0  0  0  0  0
   13.5453   -0.9649    0.0000 C   0  0  0  0  0  0  0  0  0  0  0  0
   12.8266   -0.5511    0.0000 C   0  0  0  0  0  0  0  0  0  0  0  0
   12.1147   -0.9638    0.0000 C   0  0  0  0  0  0  0  0  0  0  0  0
   12.8254    0.2739    0.0000 O   0  0  0  0  0  0  0  0  0  0  0  0
   13.5393    0.6874    0.0000 C   0  0  0  0  0  0  0  0  0  0  0  0
   14.2600   -0.5530    0.0000 O   0  0  0  0  0  0  0  0  0  0  0  0
   14.9742   -0.9660    0.0000 C   0  0  0  0  0  0  0  0  0  0  0  0
    9.2540   -4.2655    0.0000 O   0  0  0  0  0  0  0  0  0  0  0  0
    8.5397   -4.6784    0.0000 C   0  0  0  0  0  0  0  0  0  0  0  0
    7.8254   -3.4390    0.0000 O   0  0  0  0  0  0  0  0  0  0  0  0
    7.1115   -3.0255    0.0000 C   0  0  0  0  0  0  0  0  0  0  0  0
    7.8269   -1.7880    0.0000 O   0  0  0  0  0  0  0  0  0  0  0  0
    7.8263   -0.9630    0.0000 C   0  0  0  0  0  0  0  0  0  0  0  0
    9.2476   -0.9622    0.0000 O   0  0  0  0  0  0  0  0  0  0  0  0
    9.9602   -0.5464    0.0000 C   0  0  0  0  0  0  0  0  0  0  0  0
 13 14  1  0  0  0  0 
  1  2  2  0  0  0  0 
 14 15  2  0  0  0  0 
  5  4  2  0  0  0  0 
 15 16  1  0  0  0  0 
  4  1  1  0  0  0  0 
 16 17  2  0  0  0  0 
 17 12  1  0  0  0  0 
  5 10  1  0  0  0  0 
 16 18  1  0  0  0  0 
  6  7  1  0  0  0  0 
 18 19  1  0  0  0  0 
  7  8  1  0  0  0  0 
 15 20  1  0  0  0  0 
  8  9  2  0  0  0  0 
 20 21  1  0  0  0  0 
  9 10  1  0  0  0  0 
  3 22  1  0  0  0  0 
  5  6  1  0  0  0  0 
 22 23  1  0  0  0  0 
  7 11  2  0  0  0  0 
  2 24  1  0  0  0  0 
 24 25  1  0  0  0  0 
  9 12  1  0  0  0  0 
  1 26  1  0  0  0  0 
  2  3  1  0  0  0  0 
 26 27  1  0  0  0  0 
 12 13  2  0  0  0  0 
  4 28  1  0  0  0  0 
  3  6  2  0  0  0  0 
 28 29  1  0  0  0  0 
M  END
>  <MOLREGNO>
121290

>  <CHEMBLID>
CHEMBL76447

>  <SYNONYMS>
NSC-76751

>  <MAX_PHASE>
0

>  <MOLWEIGHT>
402.39

>  <ALOGP>
3.04

>  <PSA>
81.68

>  <HBA>
8

>  <HBD>
0

>  <RO5>
0

>  <RTB>
7

>  <RO3>
N

>  <ACD_MOST_APKA>


>  <ACD_MOST_BPKA>


>  <ACD_LOGP>
1.6

>  <ACD_LOGD>
1.6

>  <AROMATIC_RINGS>
2

>  <HEAVY_ATOMS>
29

>  <QED_WEIGHTED>
.7

>  <HBA_LIPINSKI>
8

>  <HBD_LIPINSKI>
0

>  <NUM_LIPINSKI_RO5_VIOLATIONS>
0

>  <MW_MONOISOTOPIC>
402.1315

>  <MOLECULAR_SPECIES>


>  <FULL_MOLFORMULA>
C21H22O8

$$$$

  CDK    9/16/09,10:8

 27 29  0  0  0  0  0  0  0  0999 V2000
   15.4742  -21.3145    0.0000 C   0  0  0  0  0  0  0  0  0  0  0  0
   15.4730  -22.1413    0.0000 C   0  0  0  0  0  0  0  0  0  0  0  0
   16.1876  -22.5540    0.0000 C   0  0  0  0  0  0  0  0  0  0  0  0
   16.1858  -20.9019    0.0000 C   0  0  0  0  0  0  0  0  0  0  0  0
   16.9007  -21.3108    0.0000 C   0  0  0  0  0  0  0  0  0  0  0  0
   16.9042  -22.1434    0.0000 C   0  0  0  0  0  0  0  0  0  0  0  0
   17.6230  -22.5545    0.0000 C   0  0  0  0  0  0  0  0  0  0  0  0
   18.3430  -22.1375    0.0000 C   0  0  0  0  0  0  0  0  0  0  0  0
   18.3396  -21.3049    0.0000 C   0  0  0  0  0  0  0  0  0  0  0  0
   17.6162  -20.8892    0.0000 O   0  0  0  0  0  0  0  0  0  0  0  0
   17.6253  -23.3791    0.0000 O   0  0  0  0  0  0  0  0  0  0  0  0
   19.0525  -20.8904    0.0000 C   0  0  0  0  0  0  0  0  0  0  0  0
   19.7671  -21.3026    0.0000 C   0  0  0  0  0  0  0  0  0  0  0  0
   20.4795  -20.8888    0.0000 C   0  0  0  0  0  0  0  0  0  0  0  0
   20.4774  -20.0633    0.0000 C   0  0  0  0  0  0  0  0  0  0  0  0
   19.7569  -19.6534    0.0000 C   0  0  0  0  0  0  0  0  0  0  0  0
   19.0476  -20.0695    0.0000 C   0  0  0  0  0  0  0  0  0  0  0  0
   21.1896  -19.6478    0.0000 O   0  0  0  0  0  0  0  0  0  0  0  0
   21.9056  -20.0569    0.0000 C   0  0  0  0  0  0  0  0  0  0  0  0
   16.1833  -20.0773    0.0000 O   0  0  0  0  0  0  0  0  0  0  0  0
   16.8961  -19.6629    0.0000 C   0  0  0  0  0  0  0  0  0  0  0  0
   14.7600  -20.9023    0.0000 O   0  0  0  0  0  0  0  0  0  0  0  0
   14.7598  -20.0777    0.0000 C   0  0  0  0  0  0  0  0  0  0  0  0
   14.7586  -22.5531    0.0000 O   0  0  0  0  0  0  0  0  0  0  0  0
   14.0449  -22.1402    0.0000 C   0  0  0  0  0  0  0  0  0  0  0  0
   16.1861  -23.3786    0.0000 O   0  0  0  0  0  0  0  0  0  0  0  0
   15.4712  -23.7896    0.0000 C   0  0  0  0  0  0  0  0  0  0  0  0
 12 13  2  0  0  0  0 
  3  6  2  0  0  0  0 
 13 14  1  0  0  0  0 
  1  2  2  0  0  0  0 
 14 15  2  0  0  0  0 
  5  4  2  0  0  0  0 
 15 16  1  0  0  0  0 
  4  1  1  0  0  0  0 
 16 17  2  0  0  0  0 
 17 12  1  0  0  0  0 
  5 10  1  0  0  0  0 
 15 18  1  0  0  0  0 
  6  7  1  0  0  0  0 
 18 19  1  0  0  0  0 
  7  8  1  0  0  0  0 
  4 20  1  0  0  0  0 
  8  9  2  0  0  0  0 
 20 21  1  0  0  0  0 
  9 10  1  0  0  0  0 
  1 22  1  0  0  0  0 
  5  6  1  0  0  0  0 
 22 23  1  0  0  0  0 
  7 11  2  0  0  0  0 
  2 24  1  0  0  0  0 
 24 25  1  0  0  0  0 
  9 12  1  0  0  0  0 
  3 26  1  0  0  0  0 
  2  3  1  0  0  0  0 
 26 27  1  0  0  0  0 
M  END
>  <MOLREGNO>
121732

>  <CHEMBLID>
CHEMBL73930

>  <SYNONYMS>
NSC-53909

>  <MAX_PHASE>
0

>  <MOLWEIGHT>
372.37

>  <ALOGP>
3.05

>  <PSA>
72.45

>  <HBA>
7

>  <HBD>
0

>  <RO5>
0

>  <RTB>
6

>  <RO3>
N

>  <ACD_MOST_APKA>


>  <ACD_MOST_BPKA>


>  <ACD_LOGP>
1.79

>  <ACD_LOGD>
1.79

>  <AROMATIC_RINGS>
2

>  <HEAVY_ATOMS>
27

>  <QED_WEIGHTED>
.77

>  <HBA_LIPINSKI>
7

>  <HBD_LIPINSKI>
0

>  <NUM_LIPINSKI_RO5_VIOLATIONS>
0

>  <MW_MONOISOTOPIC>
372.1209

>  <MOLECULAR_SPECIES>


>  <FULL_MOLFORMULA>
C20H20O7

$$$$

  SciTegic12231509382D

 21 23  0  0  0  0            999 V2000
    5.9621   -7.1046    0.0000 C   0  0
    5.9610   -7.9315    0.0000 C   0  0
    6.6754   -8.3441    0.0000 C   0  0
    6.6736   -6.6920    0.0000 C   0  0
    7.3886   -7.1010    0.0000 C   0  0
    7.3893   -7.9273    0.0000 C   0  0
    8.1042   -8.3381    0.0000 C   0  0
    8.8190   -7.9235    0.0000 C   0  0
    8.8142   -7.0940    0.0000 C   0  0
    8.0986   -6.6870    0.0000 O   0  3
    5.2479   -6.6925    0.0000 O   0  0
    6.6773   -9.1687    0.0000 O   0  0
    9.5227   -6.6791    0.0000 C   0  0
   10.2396   -7.0888    0.0000 C   0  0
   10.9507   -6.6728    0.0000 C   0  0
   10.9461   -5.8474    0.0000 C   0  0
   10.2245   -5.4396    0.0000 C   0  0
    9.5164   -5.8579    0.0000 C   0  0
   11.6670   -7.0811    0.0000 O   0  0
   11.6572   -5.4298    0.0000 O   0  0
    9.5347   -8.3330    0.0000 O   0  0
 15 16  2  0
  3  6  2  0
 16 17  1  0
  7  8  2  0
 17 18  2  0
 18 13  1  0
  9 13  1  0
 15 19  1  0
  8  9  1  0
 16 20  1  0
  5  4  2  0
  9 10  2  0
 10  5  1  0
  4  1  1  0
  1 11  1  0
  1  2  2  0
  3 12  1  0
  5  6  1  0
 13 14  2  0
  2  3  1  0
 14 15  1  0
  6  7  1  0
  8 21  1  0
M  CHG  1  10   1
M  END
>  <MOLREGNO>
437497

>  <CHEMBLID>
CHEMBL404515

>  <SYNONYMS>
Cyanidin | Cyanidin Chloride

>  <MAX_PHASE>
0

>  <MOLWEIGHT>
287.24

>  <ALOGP>
3.04

>  <PSA>
112.45

>  <HBA>
5

>  <HBD>
5

>  <RO5>
0

>  <RTB>
1

>  <RO3>
N

>  <ACD_MOST_APKA>


>  <ACD_MOST_BPKA>


>  <ACD_LOGP>
5.14

>  <ACD_LOGD>
5.14

>  <AROMATIC_RINGS>
3

>  <HEAVY_ATOMS>
21

>  <QED_WEIGHTED>
.35

>  <HBA_LIPINSKI>
6

>  <HBD_LIPINSKI>
5

>  <NUM_LIPINSKI_RO5_VIOLATIONS>
0

>  <MW_MONOISOTOPIC>
287.0556

>  <MOLECULAR_SPECIES>
NEUTRAL

>  <FULL_MOLFORMULA>
C15H11O6

$$$$

          08180812472D 1   1.00000     0.00000     0

 17 19  0     1  0            999 V2000
   -3.6542  -14.9583    0.0000 C   0  0  0  0  0  0           0  0  0
   -3.6542  -15.7833    0.0000 C   0  0  0  0  0  0           0  0  0
   -2.9421  -16.1917    0.0000 C   0  0  0  0  0  0           0  0  0
   -2.9421  -14.5417    0.0000 C   0  0  0  0  0  0           0  0  0
   -2.2301  -14.9583    0.0000 C   0  0  2  0  0  0           0  0  0
   -2.2302  -15.7844    0.0000 C   0  0  0  0  0  0           0  0  0
   -1.4446  -16.0397    0.0000 C   0  0  0  0  0  0           0  0  0
   -0.9590  -15.3714    0.0000 O   0  0  0  0  0  0           0  0  0
   -1.4445  -14.7032    0.0000 C   0  0  1  0  0  0           0  0  0
   -1.1910  -13.9217    0.0000 C   0  0  0  0  0  0           0  0  0
   -0.4064  -13.6668    0.0000 C   0  0  0  0  0  0           0  0  0
   -0.4064  -12.8417    0.0000 O   0  0  0  0  0  0           0  0  0
   -1.1911  -12.5868    0.0000 C   0  0  0  0  0  0           0  0  0
   -1.6759  -13.2543    0.0000 C   0  0  0  0  0  0           0  0  0
   -2.2375  -14.1333    0.0000 C   0  0  0  0  0  0           0  0  0
   -1.1897  -16.8243    0.0000 O   0  0  0  0  0  0           0  0  0
   -2.9426  -17.0167    0.0000 C   0  0  0  0  0  0           0  0  0
  7  8  1  0     0  0
  8  9  1  0     0  0
  9  5  1  0     0  0
 10 11  2  0     0  0
  5  4  1  0     0  0
  5  6  1  0     0  0
  1  2  1  0     0  0
  1  4  1  0     0  0
 11 12  1  0     0  0
 12 13  1  0     0  0
 13 14  2  0     0  0
 14 10  1  0     0  0
  9 10  1  6     0  0
  2  3  1  0     0  0
  5 15  1  6     0  0
  3  6  2  0     0  0
  7 16  2  0     0  0
  6  7  1  0     0  0
  3 17  1  0     0  0
M  END
>  <MOLREGNO>
425218

>  <CHEMBLID>
CHEMBL257170

>  <SYNONYMS>
Fraxinellone

>  <MAX_PHASE>
0

>  <MOLWEIGHT>
232.28

>  <ALOGP>
3

>  <PSA>
39.44

>  <HBA>
2

>  <HBD>
0

>  <RO5>
0

>  <RTB>
1

>  <RO3>
Y

>  <ACD_MOST_APKA>


>  <ACD_MOST_BPKA>


>  <ACD_LOGP>
2.59

>  <ACD_LOGD>
2.59

>  <AROMATIC_RINGS>
1

>  <HEAVY_ATOMS>
17

>  <QED_WEIGHTED>
.7

>  <HBA_LIPINSKI>
3

>  <HBD_LIPINSKI>
0

>  <NUM_LIPINSKI_RO5_VIOLATIONS>
0

>  <MW_MONOISOTOPIC>
232.1099

>  <MOLECULAR_SPECIES>


>  <FULL_MOLFORMULA>
C14H16O3

$$$$

  CDK    9/16/09,9:20

 15 17  0  0  0  0  0  0  0  0999 V2000
    2.8430    1.1797    0.0000 C   0  0  0  0  0  0  0  0  0  0  0  0
    2.8430    0.3544    0.0000 C   0  0  0  0  0  0  0  0  0  0  0  0
    3.5553   -0.0542    0.0000 C   0  0  0  0  0  0  0  0  0  0  0  0
    3.5553    1.5965    0.0000 C   0  0  0  0  0  0  0  0  0  0  0  0
    4.2676    1.1797    0.0000 C   0  0  0  0  0  0  0  0  0  0  0  0
    4.2641    0.3544    0.0000 C   0  0  0  0  0  0  0  0  0  0  0  0
    4.9733   -0.0591    0.0000 N   0  0  0  0  0  0  0  0  0  0  0  0
    4.9803    1.5916    0.0000 C   0  0  0  0  0  0  0  0  0  0  0  0
    5.6939    1.1736    0.0000 C   0  0  0  0  0  0  0  0  0  0  0  0
    5.6878    0.3487    0.0000 C   0  0  0  0  0  0  0  0  0  0  0  0
    6.4705    0.0879    0.0000 O   0  0  0  0  0  0  0  0  0  0  0  0
    6.9605    0.7518    0.0000 C   0  0  0  0  0  0  0  0  0  0  0  0
    6.4803    1.4227    0.0000 C   0  0  0  0  0  0  0  0  0  0  0  0
    4.9826    2.4170    0.0000 O   0  0  0  0  0  0  0  0  0  0  0  0
    5.6986    2.8277    0.0000 C   0  0  0  0  0  0  0  0  0  0  0  0
  5  8  1  0  0  0  0 
  6  7  1  0  0  0  0 
  7 10  2  0  0  0  0 
  9  8  2  0  0  0  0 
  9 10  1  0  0  0  0 
  3  6  1  0  0  0  0 
  5  4  1  0  0  0  0 
  5  6  2  0  0  0  0 
  1  2  1  0  0  0  0 
 10 11  1  0  0  0  0 
 11 12  1  0  0  0  0 
 12 13  2  0  0  0  0 
 13  9  1  0  0  0  0 
  1  4  2  0  0  0  0 
  8 14  1  0  0  0  0 
  2  3  2  0  0  0  0 
 14 15  1  0  0  0  0 
M  END
>  <MOLREGNO>
28294

>  <CHEMBLID>
CHEMBL22533

>  <SYNONYMS>
4-Methoxyfuro[2,3-B]Quinoline | Dictamine | Dictamnine

>  <MAX_PHASE>
0

>  <MOLWEIGHT>
199.21

>  <ALOGP>
2.5

>  <PSA>
35.26

>  <HBA>
2

>  <HBD>
0

>  <RO5>
0

>  <RTB>
1

>  <RO3>
Y

>  <ACD_MOST_APKA>


>  <ACD_MOST_BPKA>
7.25

>  <ACD_LOGP>
2.77

>  <ACD_LOGD>
2.54

>  <AROMATIC_RINGS>
3

>  <HEAVY_ATOMS>
15

>  <QED_WEIGHTED>
.6

>  <HBA_LIPINSKI>
3

>  <HBD_LIPINSKI>
0

>  <NUM_LIPINSKI_RO5_VIOLATIONS>
0

>  <MW_MONOISOTOPIC>
199.0633

>  <MOLECULAR_SPECIES>
NEUTRAL

>  <FULL_MOLFORMULA>
C12H9NO2

$$$$

  Mrv0541 05211314572D          

 10 10  0  0  0  0            999 V2000
    8.5553   -5.8468    0.0000 C   0  0  0  0  0  0  0  0  0  0  0  0
    8.5553   -6.6718    0.0000 C   0  0  0  0  0  0  0  0  0  0  0  0
    9.2698   -7.0843    0.0000 C   0  0  0  0  0  0  0  0  0  0  0  0
    9.9843   -6.6718    0.0000 C   0  0  0  0  0  0  0  0  0  0  0  0
    9.9843   -5.8468    0.0000 C   0  0  0  0  0  0  0  0  0  0  0  0
    9.2698   -5.4343    0.0000 C   0  0  0  0  0  0  0  0  0  0  0  0
    9.2698   -7.9093    0.0000 O   0  0  0  0  0  0  0  0  0  0  0  0
    9.2698   -4.6093    0.0000 C   0  0  0  0  0  0  0  0  0  0  0  0
    8.5553   -4.1968    0.0000 O   0  0  0  0  0  0  0  0  0  0  0  0
   10.6988   -7.0843    0.0000 O   0  0  0  0  0  0  0  0  0  0  0  0
  2  3  1  0  0  0  0
  5  6  2  0  0  0  0
  6  1  1  0  0  0  0
  1  2  2  0  0  0  0
  3  7  1  0  0  0  0
  3  4  2  0  0  0  0
  6  8  1  0  0  0  0
  8  9  2  0  0  0  0
  4  5  1  0  0  0  0
  4 10  1  0  0  0  0
M  END
>  <MOLREGNO>
367519

>  <CHEMBLID>
CHEMBL222021

>  <SYNONYMS>
3,4-Dihydroxybenzaldehyde | Protocatechualdehyde

>  <MAX_PHASE>
0

>  <MOLWEIGHT>
138.12

>  <ALOGP>
1.11

>  <PSA>
57.53

>  <HBA>
3

>  <HBD>
2

>  <RO5>
0

>  <RTB>
1

>  <RO3>
Y

>  <ACD_MOST_APKA>
7.61

>  <ACD_MOST_BPKA>


>  <ACD_LOGP>
.93

>  <ACD_LOGD>
.72

>  <AROMATIC_RINGS>
1

>  <HEAVY_ATOMS>
10

>  <QED_WEIGHTED>
.45

>  <HBA_LIPINSKI>
3

>  <HBD_LIPINSKI>
2

>  <NUM_LIPINSKI_RO5_VIOLATIONS>
0

>  <MW_MONOISOTOPIC>
138.0317

>  <MOLECULAR_SPECIES>
NEUTRAL

>  <FULL_MOLFORMULA>
C7H6O3

$$$$

  Mrv0541 04051115152D          

 11 11  0  0  0  0            999 V2000
    0.1437   -0.5187    0.0000 C   0  0  0  0  0  0  0  0  0  0  0  0
   -0.5708   -0.1062    0.0000 C   0  0  0  0  0  0  0  0  0  0  0  0
   -0.5708    0.7188    0.0000 C   0  0  0  0  0  0  0  0  0  0  0  0
   -1.2853    1.1313    0.0000 O   0  0  0  0  0  0  0  0  0  0  0  0
    0.1437    1.1313    0.0000 C   0  0  0  0  0  0  0  0  0  0  0  0
    0.1437    1.9563    0.0000 O   0  0  0  0  0  0  0  0  0  0  0  0
    0.8582    0.7188    0.0000 C   0  0  0  0  0  0  0  0  0  0  0  0
    0.8582   -0.1062    0.0000 C   0  0  0  0  0  0  0  0  0  0  0  0
    0.1437   -1.3437    0.0000 C   0  0  0  0  0  0  0  0  0  0  0  0
    0.8582   -1.7562    0.0000 O   0  0  0  0  0  0  0  0  0  0  0  0
   -0.5708   -1.7562    0.0000 O   0  0  0  0  0  0  0  0  0  0  0  0
  1  2  2  0  0  0  0
  1  8  1  0  0  0  0
  9  1  1  0  0  0  0
  2  3  1  0  0  0  0
  3  4  1  0  0  0  0
  3  5  2  0  0  0  0
  5  6  1  0  0  0  0
  5  7  1  0  0  0  0
  7  8  2  0  0  0  0
  9 10  2  0  0  0  0
  9 11  1  0  0  0  0
M  END
>  <MOLREGNO>
51524

>  <CHEMBLID>
CHEMBL37537

>  <SYNONYMS>
Protacatechuic Acid

>  <MAX_PHASE>
0

>  <MOLWEIGHT>
154.12

>  <ALOGP>
.98

>  <PSA>
77.76

>  <HBA>
4

>  <HBD>
3

>  <RO5>
0

>  <RTB>
1

>  <RO3>
N

>  <ACD_MOST_APKA>
4.45

>  <ACD_MOST_BPKA>


>  <ACD_LOGP>
1.01

>  <ACD_LOGD>
-1.88

>  <AROMATIC_RINGS>
1

>  <HEAVY_ATOMS>
11

>  <QED_WEIGHTED>
.53

>  <HBA_LIPINSKI>
4

>  <HBD_LIPINSKI>
3

>  <NUM_LIPINSKI_RO5_VIOLATIONS>
0

>  <MW_MONOISOTOPIC>
154.0266

>  <MOLECULAR_SPECIES>
ACID

>  <FULL_MOLFORMULA>
C7H6O4

$$$$

  SciTegic01161211252D

 12 12  0  0  0  0            999 V2000
   -5.3714  -28.1594    0.0000 C   0  0
   -5.3727  -28.9870    0.0000 C   0  0
   -4.6581  -29.3977    0.0000 C   0  0
   -3.9418  -28.9865    0.0000 C   0  0
   -3.9451  -28.1552    0.0000 C   0  0
   -4.6602  -27.7489    0.0000 C   0  0
   -6.0855  -27.7462    0.0000 O   0  0
   -6.0848  -26.9212    0.0000 C   0  0
   -3.2271  -29.3986    0.0000 C   0  0
   -3.2265  -30.2236    0.0000 O   0  0
   -2.5129  -28.9856    0.0000 C   0  0
   -4.6584  -30.2226    0.0000 O   0  0
  6  1  1  0
  1  2  2  0
  1  7  1  0
  3  4  2  0
  7  8  1  0
  4  9  1  0
  4  5  1  0
  9 10  2  0
  2  3  1  0
  9 11  1  0
  5  6  2  0
  3 12  1  0
M  END
>  <MOLREGNO>
618468

>  <CHEMBLID>
CHEMBL1079227

>  <SYNONYMS>
Paeonol

>  <MAX_PHASE>
0

>  <MOLWEIGHT>
166.17

>  <ALOGP>
1.31

>  <PSA>
46.53

>  <HBA>
3

>  <HBD>
1

>  <RO5>
0

>  <RTB>
2

>  <RO3>
Y

>  <ACD_MOST_APKA>
9.79

>  <ACD_MOST_BPKA>


>  <ACD_LOGP>
2.31

>  <ACD_LOGD>
2.31

>  <AROMATIC_RINGS>
1

>  <HEAVY_ATOMS>
12

>  <QED_WEIGHTED>
.67

>  <HBA_LIPINSKI>
3

>  <HBD_LIPINSKI>
1

>  <NUM_LIPINSKI_RO5_VIOLATIONS>
0

>  <MW_MONOISOTOPIC>
166.063

>  <MOLECULAR_SPECIES>
NEUTRAL

>  <FULL_MOLFORMULA>
C9H10O3

$$$$

  SciTegic01161211252D

 23 24  0  0  0  0            999 V2000
    0.7494  -28.6747    0.0000 C   0  0  2  0  0  0
    0.7494  -29.4833    0.0000 C   0  0  2  0  0  0
    1.4487  -29.8853    0.0000 C   0  0  1  0  0  0
    2.1527  -29.4833    0.0000 C   0  0  2  0  0  0
    2.1527  -28.6747    0.0000 C   0  0  1  0  0  0
    1.4487  -28.2681    0.0000 O   0  0
    0.0743  -28.2816    0.0000 C   0  0
    0.0723  -27.5014    0.0000 O   0  0
    2.8272  -28.2807    0.0000 O   0  0
    2.8262  -29.8745    0.0000 O   0  0
    1.4475  -30.6703    0.0000 O   0  0
    0.0752  -29.8735    0.0000 O   0  0
    2.1121  -26.2111    0.0000 C   0  0
    2.1108  -27.0413    0.0000 C   0  0
    2.8275  -27.4531    0.0000 C   0  0
    3.5460  -27.0408    0.0000 C   0  0
    3.5427  -26.2070    0.0000 C   0  0
    2.8254  -25.7994    0.0000 C   0  0
    1.3958  -25.7968    0.0000 O   0  0
    1.3965  -24.9692    0.0000 C   0  0
    4.2629  -27.4540    0.0000 C   0  0
    4.2634  -28.2816    0.0000 O   0  0
    4.9793  -27.0398    0.0000 C   0  0
  4  5  1  0
  2 12  1  6
  5  6  1  0
 13 14  2  0
  1  7  1  1
 14 15  1  0
  1  2  1  0
 15 16  2  0
  7  8  1  0
 16 17  1  0
  1  6  1  0
 17 18  2  0
 18 13  1  0
  5  9  1  1
 13 19  1  0
  2  3  1  0
 19 20  1  0
  4 10  1  6
 16 21  1  0
  3  4  1  0
 21 22  2  0
  3 11  1  1
 21 23  1  0
 15  9  1  0
M  END
>  <MOLREGNO>
618638

>  <CHEMBLID>
CHEMBL1079881

>  <SYNONYMS>
Paeonolide

>  <MAX_PHASE>
0

>  <MOLWEIGHT>
328.31

>  <ALOGP>
-.62

>  <PSA>
125.68

>  <HBA>
8

>  <HBD>
4

>  <RO5>
0

>  <RTB>
5

>  <RO3>
N

>  <ACD_MOST_APKA>
12.78

>  <ACD_MOST_BPKA>


>  <ACD_LOGP>
-.85

>  <ACD_LOGD>
-.85

>  <AROMATIC_RINGS>
1

>  <HEAVY_ATOMS>
23

>  <QED_WEIGHTED>
.53

>  <HBA_LIPINSKI>
8

>  <HBD_LIPINSKI>
4

>  <NUM_LIPINSKI_RO5_VIOLATIONS>
0

>  <MW_MONOISOTOPIC>
328.1158

>  <MOLECULAR_SPECIES>
NEUTRAL

>  <FULL_MOLFORMULA>
C15H20O8

$$$$

  CDK    8/10/10,12:22

 16 18  0  0  0  0  0  0  0  0999 V2000
   -4.0880    1.2144    0.0000 C   0  0  0  0  0  0  0  0  0  0  0  0
   -4.0880    0.3905    0.0000 C   0  0  0  0  0  0  0  0  0  0  0  0
   -3.3774   -0.0172    0.0000 C   0  0  0  0  0  0  0  0  0  0  0  0
   -3.3774    1.6307    0.0000 C   0  0  0  0  0  0  0  0  0  0  0  0
   -2.6625    1.2144    0.0000 C   0  0  0  0  0  0  0  0  0  0  0  0
   -2.6598    0.3890    0.0000 C   0  0  0  0  0  0  0  0  0  0  0  0
   -1.8728    0.1370    0.0000 C   0  0  0  0  0  0  0  0  0  0  0  0
   -1.3909    0.8103    0.0000 O   0  0  0  0  0  0  0  0  0  0  0  0
   -1.8798    1.4753    0.0000 C   0  0  0  0  0  0  0  0  0  0  0  0
   -1.6284    2.2608    0.0000 O   0  0  0  0  0  0  0  0  0  0  0  0
   -1.6124   -0.6442    0.0000 O   0  0  0  0  0  0  0  0  0  0  0  0
   -2.6695    2.0383    0.0000 C   0  0  0  0  0  0  0  0  0  0  0  0
   -2.6674   -0.4376    0.0000 C   0  0  0  0  0  0  0  0  0  0  0  0
   -3.1685    0.7813    0.0000 O   0  0  0  0  0  0  0  0  0  0  0  0
   -3.3774    2.4588    0.0000 H   0  0  0  0  0  0  0  0  0  0  0  0
   -3.3756   -0.8453    0.0000 H   0  0  0  0  0  0  0  0  0  0  0  0
  1  2  1  0  0  0  0 
  1  4  1  0  0  0  0 
  2  3  1  0  0  0  0 
  3  6  1  0  0  0  0 
  5  4  1  0  0  0  0 
  5  6  1  0  0  0  0 
  6  7  1  0  0  0  0 
  7  8  1  0  0  0  0 
  8  9  1  0  0  0  0 
  5  9  1  0  0  0  0 
  9 10  2  0  0  0  0 
  7 11  2  0  0  0  0 
  5 12  1  6  0  0  0 
  6 13  1  6  0  0  0 
  3 14  1  0  0  0  0 
  4 14  1  0  0  0  0 
  4 15  1  1  0  0  0 
  3 16  1  1  0  0  0 
M  END
>  <MOLREGNO>
69448

>  <CHEMBLID>
CHEMBL48449

>  <SYNONYMS>
Cantharidin

>  <MAX_PHASE>
0

>  <MOLWEIGHT>
196.2

>  <ALOGP>
.72

>  <PSA>
52.6

>  <HBA>
4

>  <HBD>
0

>  <RO5>
0

>  <RTB>
0

>  <RO3>
N

>  <ACD_MOST_APKA>


>  <ACD_MOST_BPKA>


>  <ACD_LOGP>
-.41

>  <ACD_LOGD>
-.41

>  <AROMATIC_RINGS>
0

>  <HEAVY_ATOMS>
14

>  <QED_WEIGHTED>
.42

>  <HBA_LIPINSKI>
4

>  <HBD_LIPINSKI>
0

>  <NUM_LIPINSKI_RO5_VIOLATIONS>
0

>  <MW_MONOISOTOPIC>
196.0736

>  <MOLECULAR_SPECIES>


>  <FULL_MOLFORMULA>
C10H12O4

$$$$

  SciTegic11201309402D

 16 18  0  0  0  0            999 V2000
    7.6218   -1.7383    0.0000 O   0  0
    7.0564   -2.3391    0.0000 C   0  0
    7.2102   -3.1497    0.0000 O   0  0
    6.4868   -3.5464    0.0000 C   0  0
    6.3825   -4.3648    0.0000 O   0  0
    5.8860   -2.9810    0.0000 C   0  0  1  0  0  0
    5.1555   -2.6107    0.0000 C   0  0  1  0  0  0
    4.3800   -3.0010    0.0000 C   0  0
    4.7453   -2.3405    0.0000 C   0  0
    5.3856   -1.8903    0.0000 C   0  0  1  0  0  0
    5.2256   -1.0749    0.0000 O   0  0
    6.2380   -2.2349    0.0000 C   0  0  1  0  0  0
    6.4906   -1.2673    0.0000 H   0  0
    5.4997   -2.8838    0.0000 H   0  0
    5.1541   -3.6107    0.0000 H   0  0
    5.3114   -3.7994    0.0000 H   0  0
  1  2  2  0
  2  3  1  0
  3  4  1  0
  4  5  2  0
  6  4  1  0
  6  7  1  0
  7  8  1  0
  8  9  1  0
  9 10  1  0
 10 11  1  0
  7 11  1  0
 10 12  1  0
 12  2  1  0
  6 12  1  0
 12 13  1  6
 10 14  1  6
  7 15  1  6
  6 16  1  6
M  END
>  <MOLREGNO>
699563

>  <CHEMBLID>
CHEMBL1237212

>  <SYNONYMS>
Norcantharidin

>  <MAX_PHASE>
0

>  <MOLWEIGHT>
168.15

>  <ALOGP>
-.12

>  <PSA>
52.6

>  <HBA>
4

>  <HBD>
0

>  <RO5>
0

>  <RTB>
0

>  <RO3>
N

>  <ACD_MOST_APKA>


>  <ACD_MOST_BPKA>


>  <ACD_LOGP>
-.97

>  <ACD_LOGD>
-.97

>  <AROMATIC_RINGS>
0

>  <HEAVY_ATOMS>
12

>  <QED_WEIGHTED>
.37

>  <HBA_LIPINSKI>
4

>  <HBD_LIPINSKI>
0

>  <NUM_LIPINSKI_RO5_VIOLATIONS>
0

>  <MW_MONOISOTOPIC>
168.0423

>  <MOLECULAR_SPECIES>


>  <FULL_MOLFORMULA>
C8H8O4

$$$$

  SciTegic12231509382D

 33 36  0  0  1  0            999 V2000
    6.7426    1.4667    0.0000 O   0  0
    2.1214   -0.8113    0.0000 O   0  0
   10.9723    1.7615    0.0000 O   0  0
   10.7768    0.3460    0.0000 O   0  0
    6.9941    0.0600    0.0000 C   0  0  1  0  0  0
    6.7138   -0.7159    0.0000 C   0  0  2  0  0  0
    5.3699   -0.2304    0.0000 C   0  0  1  0  0  0
    5.9017   -0.8611    0.0000 C   0  0  1  0  0  0
    4.5578   -0.3756    0.0000 C   0  0  2  0  0  0
    7.8187    0.0332    0.0000 C   0  0  2  0  0  0
    6.4623    0.6907    0.0000 C   0  0  2  0  0  0
    5.6502    0.5455    0.0000 C   0  0
    4.2775   -1.1515    0.0000 C   0  0  2  0  0  0
    7.3652   -1.2223    0.0000 C   0  0
    8.0480   -0.7593    0.0000 C   0  0
    5.6214   -1.6370    0.0000 C   0  0
    8.3251    0.6845    0.0000 C   0  0  1  0  0  0
    4.0260    0.2551    0.0000 C   0  0
    4.8093   -1.7823    0.0000 C   0  0
    7.3540    0.8024    0.0000 C   0  0
    3.4654   -1.2968    0.0000 C   0  0
    4.8381    0.4003    0.0000 C   0  0
    2.9335   -0.6661    0.0000 C   0  0  1  0  0  0
    3.2138    0.1099    0.0000 C   0  0
    9.1423    0.5717    0.0000 C   0  0
    8.0142    1.4487    0.0000 C   0  0
    9.6487    1.2230    0.0000 C   0  0
   10.4659    1.1102    0.0000 C   0  0
    3.9378   -2.0920    0.0000 H   0  0
    8.8008   -0.1553    0.0000 H   0  0
    6.5463   -1.6256    0.0000 H   0  0
    4.7253    0.5341    0.0000 H   0  0
    6.4742   -1.6868    0.0000 H   0  0
 11  1  1  6
 23  2  1  6
  3 28  1  0
  4 28  2  0
  5  6  1  0
  5 10  1  0
  5 11  1  0
  5 20  1  1
  6  8  1  0
  6 14  1  0
  7  8  1  0
  7  9  1  0
  7 12  1  0
  8 16  1  0
  9 13  1  0
  9 18  1  0
  9 22  1  1
 10 15  1  0
 10 17  1  0
 11 12  1  0
 13 19  1  0
 13 21  1  0
 14 15  1  0
 16 19  1  0
 17 25  1  0
 17 26  1  6
 18 24  1  0
 21 23  1  0
 23 24  1  0
 25 27  1  0
 27 28  1  0
 13 29  1  1
 10 30  1  6
  8 31  1  1
  7 32  1  6
  6 33  1  6
M  END
>  <MOLREGNO>
442077

>  <CHEMBLID>
CHEMBL406393

>  <SYNONYMS>
ATX-101 | DEOXYCHOLIC ACID | Deoxycholate

>  <MAX_PHASE>
4

>  <MOLWEIGHT>
392.57

>  <ALOGP>
4.08

>  <PSA>
77.75

>  <HBA>
4

>  <HBD>
3

>  <RO5>
0

>  <RTB>
4

>  <RO3>
N

>  <ACD_MOST_APKA>
10

>  <ACD_MOST_BPKA>


>  <ACD_LOGP>
2.78

>  <ACD_LOGD>
2.78

>  <AROMATIC_RINGS>
0

>  <HEAVY_ATOMS>
28

>  <QED_WEIGHTED>
.67

>  <HBA_LIPINSKI>
4

>  <HBD_LIPINSKI>
3

>  <NUM_LIPINSKI_RO5_VIOLATIONS>
0

>  <MW_MONOISOTOPIC>
392.2927

>  <MOLECULAR_SPECIES>
NEUTRAL

>  <FULL_MOLFORMULA>
C24H40O4

$$$$

  SciTegic12231509382D

 33 36  0  0  0  0            999 V2000
    7.2278   -3.3375    0.0000 C   0  0
    6.5155   -3.7521    0.0000 C   0  0
    6.5155   -4.5771    0.0000 C   0  0  1  0  0  0
    5.7990   -4.9875    0.0000 O   0  0
    7.2278   -4.9875    0.0000 C   0  0
    7.9443   -4.5771    0.0000 C   0  0  1  0  0  0
    7.9443   -5.4021    0.0000 H   0  0
    8.6607   -4.9875    0.0000 C   0  0
    9.3730   -4.5771    0.0000 C   0  0
    9.3730   -3.7521    0.0000 C   0  0  1  0  0  0
   10.0894   -3.3375    0.0000 C   0  0  2  0  0  0
   10.8702   -3.5975    0.0000 C   0  0
   11.3566   -2.9270    0.0000 C   0  0
   10.8702   -2.2608    0.0000 C   0  0  2  0  0  0
   11.3274   -1.5731    0.0000 C   0  0  1  0  0  0
   12.1508   -1.5762    0.0000 C   0  0
   12.5629   -0.8646    0.0000 C   0  0
   13.3904   -0.8687    0.0000 C   0  0
   10.9172   -0.8544    0.0000 C   0  0
   10.0894   -2.5124    0.0000 C   0  0  2  0  0  0
   10.1780   -1.6942    0.0000 C   0  0
    9.3730   -2.1020    0.0000 C   0  0  1  0  0  0
    9.3730   -1.2770    0.0000 O   0  0
    8.6607   -2.5124    0.0000 C   0  0
    8.6607   -3.3375    0.0000 C   0  0  2  0  0  0
    7.9443   -3.7521    0.0000 C   0  0  1  0  0  0
    7.9443   -2.9270    0.0000 C   0  0
   13.8016   -1.5834    0.0000 O   0  0
   13.8076   -0.1542    0.0000 O   0  0
    9.3656   -2.9270    0.0000 C   0  0
    8.6524   -4.1624    0.0000 H   0  0
   10.0828   -4.1624    0.0000 H   0  0
   11.6914   -2.2595    0.0000 H   0  0
  3  4  1  6
  3  5  1  0
  5  6  1  0
  6  7  1  1
  6  8  1  0
  8  9  1  0
  9 10  1  0
 10 11  1  0
 11 12  1  0
 12 13  1  0
 14 13  1  0
 14 15  1  0
 15 16  1  0
 16 17  1  0
 17 18  1  0
 15 19  1  6
 14 20  1  0
 11 20  1  0
 20 21  1  1
 20 22  1  0
 22 23  1  6
 22 24  1  0
 24 25  1  0
 10 25  1  0
 25 26  1  0
  1 26  1  0
  6 26  1  0
 26 27  1  1
 18 28  2  0
 18 29  1  0
 10 30  1  1
 25 31  1  6
  1  2  1  0
 11 32  1  6
  2  3  1  0
 14 33  1  6
M  END
>  <MOLREGNO>
682208

>  <CHEMBLID>
CHEMBL1208257

>  <SYNONYMS>
Sodium Deoxycholate

>  <MAX_PHASE>
0

>  <MOLWEIGHT>
406.6

>  <ALOGP>
4.29

>  <PSA>
77.76

>  <HBA>
4

>  <HBD>
3

>  <RO5>
0

>  <RTB>
4

>  <RO3>
N

>  <ACD_MOST_APKA>
2.68

>  <ACD_MOST_BPKA>


>  <ACD_LOGP>
-1.79

>  <ACD_LOGD>
-5.9

>  <AROMATIC_RINGS>
0

>  <HEAVY_ATOMS>
29

>  <QED_WEIGHTED>
.65

>  <HBA_LIPINSKI>
4

>  <HBD_LIPINSKI>
3

>  <NUM_LIPINSKI_RO5_VIOLATIONS>
0

>  <MW_MONOISOTOPIC>
406.3083

>  <MOLECULAR_SPECIES>
ACID

>  <FULL_MOLFORMULA>
C25H42O4

$$$$

          08180812492D 1   1.00000     0.00000     0

 33 36  0     1  0            999 V2000
   -3.3542  -11.4750    0.0000 C   0  0  0  0  0  0           0  0  0
   -3.3542  -12.3000    0.0000 C   0  0  2  0  0  0           0  0  0
   -2.6421  -12.7083    0.0000 C   0  0  0  0  0  0           0  0  0
   -2.6421  -11.0583    0.0000 C   0  0  0  0  0  0           0  0  0
   -1.9301  -11.4750    0.0000 C   0  0  1  0  0  0           0  0  0
   -1.9291  -12.3000    0.0000 C   0  0  2  0  0  0           0  0  0
   -1.2180  -12.7093    0.0000 C   0  0  2  0  0  0           0  0  0
   -0.5035  -12.2982    0.0000 C   0  0  0  0  0  0           0  0  0
   -1.2201  -11.0593    0.0000 C   0  0  2  0  0  0           0  0  0
   -0.5049  -11.4778    0.0000 C   0  0  2  0  0  0           0  0  0
   -0.4970   -9.8234    0.0000 C   0  0  0  0  0  0           0  0  0
   -1.2193  -10.2329    0.0000 C   0  0  0  0  0  0           0  0  0
    0.2182  -10.2419    0.0000 C   0  0  1  0  0  0           0  0  0
    0.2101  -11.0668    0.0000 C   0  0  1  0  0  0           0  0  0
    0.9921  -11.3294    0.0000 C   0  0  0  0  0  0           0  0  0
    1.4836  -10.6668    0.0000 C   0  0  0  0  0  0           0  0  0
    1.0053   -9.9948    0.0000 C   0  0  2  0  0  0           0  0  0
    0.2125   -9.4167    0.0000 C   0  0  0  0  0  0           0  0  0
   -1.9333  -13.1208    0.0000 H   0  0  0  0  0  0           0  0  0
   -1.9375  -10.6500    0.0000 C   0  0  0  0  0  0           0  0  0
    1.4125   -9.2750    0.0000 C   0  0  1  0  0  0           0  0  0
    2.2375   -9.2678    0.0000 C   0  0  0  0  0  0           0  0  0
    0.9938   -8.5642    0.0000 C   0  0  0  0  0  0           0  0  0
    2.6562   -9.9787    0.0000 C   0  0  0  0  0  0           0  0  0
    3.4811   -9.9715    0.0000 C   0  0  0  0  0  0           0  0  0
    3.8979  -10.6802    0.0000 O   0  0  0  0  0  0           0  0  0
    3.8854   -9.2513    0.0000 O   0  0  0  0  0  0           0  0  0
   -4.0680  -12.7135    0.0000 O   0  0  0  0  0  0           0  0  0
   -1.2181  -13.5343    0.0000 O   0  0  0  0  0  0           0  0  0
   -0.5125  -10.6500    0.0000 H   0  0  0  0  0  0           0  0  0
   -1.2250  -11.8833    0.0000 H   0  0  0  0  0  0           0  0  0
    0.2042  -11.8917    0.0000 H   0  0  0  0  0  0           0  0  0
    1.8292   -9.9917    0.0000 H   0  0  0  0  0  0           0  0  0
  6  7  1  0     0  0
 14 15  1  0     0  0
 15 16  1  0     0  0
 16 17  1  0     0  0
 17 13  1  0     0  0
  7  8  1  0     0  0
 13 18  1  1     0  0
  8 10  1  0     0  0
  6 19  1  1     0  0
  9 10  1  0     0  0
  5 20  1  1     0  0
  3  6  1  0     0  0
 17 21  1  0     0  0
  5  4  1  0     0  0
 21 22  1  0     0  0
  5  6  1  0     0  0
 21 23  1  6     0  0
 22 24  1  0     0  0
  9 12  1  0     0  0
 24 25  1  0     0  0
 10 14  1  0     0  0
 13 11  1  0     0  0
 25 26  1  0     0  0
 25 27  2  0     0  0
 11 12  1  0     0  0
  2 28  1  6     0  0
 13 14  1  0     0  0
  7 29  1  6     0  0
  1  2  1  0     0  0
 10 30  1  1     0  0
  1  4  1  0     0  0
  9 31  1  6     0  0
  2  3  1  0     0  0
 14 32  1  6     0  0
  5  9  1  0     0  0
 17 33  1  6     0  0
M  END
>  <MOLREGNO>
441984

>  <CHEMBLID>
CHEMBL272621

>  <SYNONYMS>
HDCA | HYODEOXYCHOLIC_ACID | AHRO-001

>  <MAX_PHASE>
1

>  <MOLWEIGHT>
392.57

>  <ALOGP>
4.01

>  <PSA>
77.76

>  <HBA>
4

>  <HBD>
3

>  <RO5>
0

>  <RTB>
4

>  <RO3>
N

>  <ACD_MOST_APKA>
4.76

>  <ACD_MOST_BPKA>


>  <ACD_LOGP>
5.05

>  <ACD_LOGD>
2.44

>  <AROMATIC_RINGS>
0

>  <HEAVY_ATOMS>
28

>  <QED_WEIGHTED>
.68

>  <HBA_LIPINSKI>
4

>  <HBD_LIPINSKI>
3

>  <NUM_LIPINSKI_RO5_VIOLATIONS>
0

>  <MW_MONOISOTOPIC>
392.2927

>  <MOLECULAR_SPECIES>
ACID

>  <FULL_MOLFORMULA>
C24H40O4

$$$$

  SciTegic12231509382D

 34 37  0  0  1  0            999 V2000
    6.7426    1.6315    0.0000 O   0  0
    6.1532   -2.1029    0.0000 O   0  0
    2.1214   -0.6464    0.0000 O   0  0
   10.9723    1.9263    0.0000 O   0  0
   10.7768    0.5108    0.0000 O   0  0
    5.9017   -0.6963    0.0000 C   0  0  1  0  0  0
    6.7138   -0.5511    0.0000 C   0  0  1  0  0  0
    5.3699   -0.0656    0.0000 C   0  0  1  0  0  0
    6.9941    0.2249    0.0000 C   0  0  1  0  0  0
    4.5578   -0.2108    0.0000 C   0  0  2  0  0  0
    7.8187    0.1980    0.0000 C   0  0  2  0  0  0
    6.4623    0.8556    0.0000 C   0  0  2  0  0  0
    4.2775   -0.9867    0.0000 C   0  0  2  0  0  0
    5.6214   -1.4722    0.0000 C   0  0  1  0  0  0
    5.6502    0.7103    0.0000 C   0  0
    7.3652   -1.0574    0.0000 C   0  0
    4.8093   -1.6174    0.0000 C   0  0
    8.0480   -0.5944    0.0000 C   0  0
    4.0260    0.4199    0.0000 C   0  0
    8.3251    0.8494    0.0000 C   0  0  1  0  0  0
    7.3540    0.9672    0.0000 C   0  0
    3.4654   -1.1319    0.0000 C   0  0
    4.8381    0.5651    0.0000 C   0  0
    2.9335   -0.5012    0.0000 C   0  0  1  0  0  0
    3.2138    0.2747    0.0000 C   0  0
    9.1423    0.7365    0.0000 C   0  0
    8.0142    1.6136    0.0000 C   0  0
    9.6487    1.3879    0.0000 C   0  0
   10.4659    1.2750    0.0000 C   0  0
    6.6172   -1.1071    0.0000 H   0  0
    6.8021   -1.3713    0.0000 H   0  0
    5.0859    0.7090    0.0000 H   0  0
    7.7448    1.0197    0.0000 H   0  0
    3.9972   -1.7626    0.0000 H   0  0
 12  1  1  6
 14  2  1  6
 24  3  1  6
  4 29  1  0
  5 29  2  0
  6  7  1  0
  6  8  1  0
  6 14  1  0
  6 30  1  1
  7  9  1  0
  7 16  1  0
  7 31  1  6
  8 10  1  0
  8 15  1  0
  8 32  1  6
  9 11  1  0
  9 12  1  0
  9 21  1  1
 10 13  1  0
 10 19  1  0
 10 23  1  1
 11 18  1  0
 11 20  1  0
 11 33  1  6
 12 15  1  0
 13 17  1  0
 13 22  1  0
 13 34  1  1
 14 17  1  0
 16 18  1  0
 19 25  1  0
 20 26  1  0
 20 27  1  6
 22 24  1  0
 24 25  1  0
 26 28  1  0
 28 29  1  0
M  END
>  <MOLREGNO>
343964

>  <CHEMBLID>
CHEMBL205596

>  <SYNONYMS>
E1000 | CHOLIC ACID

>  <MAX_PHASE>
4

>  <MOLWEIGHT>
408.57

>  <ALOGP>
2.91

>  <PSA>
97.99

>  <HBA>
5

>  <HBD>
4

>  <RO5>
0

>  <RTB>
4

>  <RO3>
N

>  <ACD_MOST_APKA>
4.76

>  <ACD_MOST_BPKA>


>  <ACD_LOGP>
2.88

>  <ACD_LOGD>
.27

>  <AROMATIC_RINGS>
0

>  <HEAVY_ATOMS>
29

>  <QED_WEIGHTED>
.57

>  <HBA_LIPINSKI>
5

>  <HBD_LIPINSKI>
4

>  <NUM_LIPINSKI_RO5_VIOLATIONS>
0

>  <MW_MONOISOTOPIC>
408.2876

>  <MOLECULAR_SPECIES>
ACID

>  <FULL_MOLFORMULA>
C24H40O5

$$$$

  SciTegic12231509382D

 24 26  0  0  1  0            999 V2000
    0.2679    0.9453    0.0000 O   0  0
    0.9824   -0.2922    0.0000 O   0  0
   -2.5900   -0.7047    0.0000 O   0  0
    1.6969    1.7703    0.0000 O   0  0
    3.1258    0.9453    0.0000 O   0  0
    3.1258   -0.7047    0.0000 O   0  0
    0.2679   -0.7047    0.0000 O   0  0
   -4.0189   -0.7047    0.0000 O   0  0
    2.4113   -1.9422    0.0000 O   0  0
    0.9824    0.5328    0.0000 C   0  0  2  0  0  0
    1.6969    0.9453    0.0000 C   0  0  1  0  0  0
   -0.4465    0.5328    0.0000 C   0  0
    2.4113    0.5328    0.0000 C   0  0  2  0  0  0
    2.4113   -0.2922    0.0000 C   0  0  1  0  0  0
    1.6969   -0.7047    0.0000 C   0  0  1  0  0  0
   -1.8755    0.5328    0.0000 C   0  0
   -1.8755   -0.2922    0.0000 C   0  0
   -0.4465   -0.2922    0.0000 C   0  0
   -1.1610    0.9453    0.0000 C   0  0
   -1.1610   -0.7047    0.0000 C   0  0
   -2.5900    0.9453    0.0000 C   0  0
   -3.3044   -0.2922    0.0000 C   0  0
    1.6969   -1.5297    0.0000 C   0  0
   -3.3044    0.5328    0.0000 C   0  0
 10  1  1  1
  1 12  1  0
  2 10  1  0
  2 15  1  0
  3 17  1  0
  3 22  1  0
 11  4  1  6
 13  5  1  1
 14  6  1  6
  7 18  1  0
  8 22  2  0
  9 23  1  0
 10 11  1  0
 11 13  1  0
 12 18  1  0
 12 19  2  0
 13 14  1  0
 14 15  1  0
 15 23  1  1
 16 17  2  0
 16 19  1  0
 16 21  1  0
 17 20  1  0
 18 20  2  0
 21 24  2  0
 22 24  1  0
M  END
>  <MOLREGNO>
484211

>  <CHEMBLID>
CHEMBL482581

>  <SYNONYMS>
NSC-26665

>  <MAX_PHASE>
0

>  <MOLWEIGHT>
340.28

>  <ALOGP>
-.51

>  <PSA>
145.91

>  <HBA>
9

>  <HBD>
5

>  <RO5>
0

>  <RTB>
3

>  <RO3>
N

>  <ACD_MOST_APKA>


>  <ACD_MOST_BPKA>
7.12

>  <ACD_LOGP>
2.51

>  <ACD_LOGD>
2.26

>  <AROMATIC_RINGS>
1

>  <HEAVY_ATOMS>
24

>  <QED_WEIGHTED>
.36

>  <HBA_LIPINSKI>
9

>  <HBD_LIPINSKI>
5

>  <NUM_LIPINSKI_RO5_VIOLATIONS>
0

>  <MW_MONOISOTOPIC>
340.0794

>  <MOLECULAR_SPECIES>
NEUTRAL

>  <FULL_MOLFORMULA>
C15H16O9

$$$$

  CDK    9/16/09,9:20

 13 14  0  0  0  0  0  0  0  0999 V2000
   -1.4328   -0.6146    0.0000 C   0  0  0  0  0  0  0  0  0  0  0  0
   -1.4328    0.2104    0.0000 C   0  0  0  0  0  0  0  0  0  0  0  0
   -0.7205    0.6208    0.0000 C   0  0  0  0  0  0  0  0  0  0  0  0
   -0.0042    0.2104    0.0000 C   0  0  0  0  0  0  0  0  0  0  0  0
   -0.0042   -0.6146    0.0000 C   0  0  0  0  0  0  0  0  0  0  0  0
   -0.7205   -1.0292    0.0000 O   0  0  0  0  0  0  0  0  0  0  0  0
    0.7123   -1.0292    0.0000 C   0  0  0  0  0  0  0  0  0  0  0  0
    1.4244   -0.6146    0.0000 C   0  0  0  0  0  0  0  0  0  0  0  0
    1.4244    0.2104    0.0000 C   0  0  0  0  0  0  0  0  0  0  0  0
    0.7123    0.6208    0.0000 C   0  0  0  0  0  0  0  0  0  0  0  0
   -2.1492   -1.0292    0.0000 O   0  0  0  0  0  0  0  0  0  0  0  0
    2.1409   -1.0292    0.0000 O   0  0  0  0  0  0  0  0  0  0  0  0
    2.1409    0.6208    0.0000 O   0  0  0  0  0  0  0  0  0  0  0  0
  1  2  1  0  0  0  0 
  2  3  2  0  0  0  0 
  3  4  1  0  0  0  0 
  4  5  1  0  0  0  0 
  5  6  1  0  0  0  0 
  1  6  1  0  0  0  0 
  7  8  1  0  0  0  0 
  8  9  2  0  0  0  0 
  9 10  1  0  0  0  0 
  4 10  2  0  0  0  0 
  5  7  2  0  0  0  0 
  1 11  2  0  0  0  0 
  8 12  1  0  0  0  0 
  9 13  1  0  0  0  0 
M  END
>  <MOLREGNO>
390095

>  <CHEMBLID>
CHEMBL244743

>  <SYNONYMS>
6,7-Dihydroxycoumarin | Esculetin

>  <MAX_PHASE>
0

>  <MOLWEIGHT>
178.14

>  <ALOGP>
1.42

>  <PSA>
66.76

>  <HBA>
4

>  <HBD>
2

>  <RO5>
0

>  <RTB>
0

>  <RO3>
N

>  <ACD_MOST_APKA>
7.74

>  <ACD_MOST_BPKA>


>  <ACD_LOGP>
.88

>  <ACD_LOGD>
.71

>  <AROMATIC_RINGS>
1

>  <HEAVY_ATOMS>
13

>  <QED_WEIGHTED>
.36

>  <HBA_LIPINSKI>
4

>  <HBD_LIPINSKI>
2

>  <NUM_LIPINSKI_RO5_VIOLATIONS>
0

>  <MW_MONOISOTOPIC>
178.0266

>  <MOLECULAR_SPECIES>
NEUTRAL

>  <FULL_MOLFORMULA>
C9H6O4

$$$$

  CDK    9/16/09,9:19

 85 92  0  0  0  0  0  0  0  0999 V2000
   -0.3386   -3.7853    0.0000 C   0  0  0  0  0  0  0  0  0  0  0  0
   -0.3334   -4.6090    0.0000 C   0  0  0  0  0  0  0  0  0  0  0  0
   -1.0438   -5.0212    0.0000 C   0  0  0  0  0  0  0  0  0  0  0  0
   -1.7606   -4.6120    0.0000 C   0  0  0  0  0  0  0  0  0  0  0  0
   -1.7623   -3.7860    0.0000 C   0  0  0  0  0  0  0  0  0  0  0  0
   -1.0473   -3.3693    0.0000 O   0  0  0  0  0  0  0  0  0  0  0  0
   -2.4781   -3.3757    0.0000 C   0  0  0  0  0  0  0  0  0  0  0  0
   -3.1913   -3.7904    0.0000 O   0  0  0  0  0  0  0  0  0  0  0  0
    0.3828   -5.0185    0.0000 O   0  0  0  0  0  0  0  0  0  0  0  0
   -1.0410   -5.8462    0.0000 O   0  0  0  0  0  0  0  0  0  0  0  0
   -2.4737   -5.0270    0.0000 O   0  0  0  0  0  0  0  0  0  0  0  0
    0.3761   -3.3731    0.0000 O   0  0  0  0  0  0  0  0  0  0  0  0
   -1.4615   -0.1762    0.0000 C   0  0  0  0  0  0  0  0  0  0  0  0
   -2.2844   -0.1742    0.0000 C   0  0  0  0  0  0  0  0  0  0  0  0
   -2.6944    0.5375    0.0000 C   0  0  0  0  0  0  0  0  0  0  0  0
   -2.2831    1.2531    0.0000 C   0  0  0  0  0  0  0  0  0  0  0  0
   -1.4572    1.2523    0.0000 C   0  0  0  0  0  0  0  0  0  0  0  0
   -1.0425    0.5361    0.0000 O   0  0  0  0  0  0  0  0  0  0  0  0
   -2.6981   -0.8880    0.0000 O   0  0  0  0  0  0  0  0  0  0  0  0
   -3.5194    0.5371    0.0000 O   0  0  0  0  0  0  0  0  0  0  0  0
   -2.6960    1.9673    0.0000 O   0  0  0  0  0  0  0  0  0  0  0  0
   -1.0448    1.9669    0.0000 C   0  0  0  0  0  0  0  0  0  0  0  0
   -1.4574    2.6813    0.0000 O   0  0  0  0  0  0  0  0  0  0  0  0
   -1.0528   -0.8929    0.0000 O   0  0  0  0  0  0  0  0  0  0  0  0
    2.5208   -1.3042    0.0000 C   0  0  0  0  0  0  0  0  0  0  0  0
    2.5208   -2.1292    0.0000 C   0  0  0  0  0  0  0  0  0  0  0  0
    3.2329   -2.5375    0.0000 C   0  0  0  0  0  0  0  0  0  0  0  0
    3.2329   -0.8875    0.0000 C   0  0  0  0  0  0  0  0  0  0  0  0
    3.9449   -1.3042    0.0000 C   0  0  0  0  0  0  0  0  0  0  0  0
    3.9414   -2.1292    0.0000 C   0  0  0  0  0  0  0  0  0  0  0  0
    4.6501   -2.5424    0.0000 C   0  0  0  0  0  0  0  0  0  0  0  0
    5.3669   -2.1352    0.0000 C   0  0  0  0  0  0  0  0  0  0  0  0
    4.6571   -0.8924    0.0000 C   0  0  0  0  0  0  0  0  0  0  0  0
    5.3705   -1.3151    0.0000 C   0  0  0  0  0  0  0  0  0  0  0  0
    5.3875    0.3402    0.0000 C   0  0  0  0  0  0  0  0  0  0  0  0
    4.6625   -0.0656    0.0000 C   0  0  0  0  0  0  0  0  0  0  0  0
    6.1008   -0.0824    0.0000 C   0  0  0  0  0  0  0  0  0  0  0  0
    6.0873   -0.9126    0.0000 C   0  0  0  0  0  0  0  0  0  0  0  0
    6.7956   -1.3371    0.0000 C   0  0  0  0  0  0  0  0  0  0  0  0
    7.5219   -0.9360    0.0000 C   0  0  0  0  0  0  0  0  0  0  0  0
    6.8227    0.3233    0.0000 C   0  0  0  0  0  0  0  0  0  0  0  0
    7.5366   -0.1093    0.0000 C   0  0  0  0  0  0  0  0  0  0  0  0
    8.2641    0.2905    0.0000 C   0  0  0  0  0  0  0  0  0  0  0  0
    8.2841    1.1244    0.0000 C   0  0  0  0  0  0  0  0  0  0  0  0
    7.5702    1.5570    0.0000 C   0  0  0  0  0  0  0  0  0  0  0  0
    6.8363    1.1557    0.0000 C   0  0  0  0  0  0  0  0  0  0  0  0
    6.9792    2.1458    0.0000 C   0  0  0  0  0  0  0  0  0  0  0  0
    8.1500    2.1458    0.0000 C   0  0  0  0  0  0  0  0  0  0  0  0
    9.0077    1.5207    0.0000 O   0  0  0  0  0  0  0  0  0  0  0  0
    8.9691   -0.1380    0.0000 O   0  0  0  0  0  0  0  0  0  0  0  0
    6.1042    0.7375    0.0000 H   0  0  0  0  0  0  0  0  0  0  0  0
    8.2458   -0.5208    0.0000 C   0  0  0  0  0  0  0  0  0  0  0  0
    8.2440   -1.3458    0.0000 O   0  0  0  0  0  0  0  0  0  0  0  0
    6.8042   -0.5208    0.0000 O   0  0  0  0  0  0  0  0  0  0  0  0
    6.0792   -1.7375    0.0000 C   0  0  0  0  0  0  0  0  0  0  0  0
    5.3625   -0.4875    0.0000 C   0  0  0  0  0  0  0  0  0  0  0  0
    3.9375   -0.4792    0.0000 C   0  0  0  0  0  0  0  0  0  0  0  0
    2.6417   -3.1208    0.0000 C   0  0  0  0  0  0  0  0  0  0  0  0
    3.6375   -3.2500    0.0000 C   0  0  0  0  0  0  0  0  0  0  0  0
    1.8070   -2.5427    0.0000 O   0  0  0  0  0  0  0  0  0  0  0  0
    1.0919   -2.1312    0.0000 C   0  0  0  0  0  0  0  0  0  0  0  0
    1.0884   -1.3075    0.0000 O   0  0  0  0  0  0  0  0  0  0  0  0
    0.3774   -0.8962    0.0000 C   0  0  0  0  0  0  0  0  0  0  0  0
   -0.3389   -1.3062    0.0000 C   0  0  0  0  0  0  0  0  0  0  0  0
   -0.3397   -2.1322    0.0000 C   0  0  0  0  0  0  0  0  0  0  0  0
    0.3758   -2.5481    0.0000 C   0  0  0  0  0  0  0  0  0  0  0  0
    0.3793   -0.0712    0.0000 C   0  0  0  0  0  0  0  0  0  0  0  0
    1.0947    0.3397    0.0000 O   0  0  0  0  0  0  0  0  0  0  0  0
   -0.3342    0.3430    0.0000 O   0  0  0  0  0  0  0  0  0  0  0  0
   -1.0550   -2.5433    0.0000 O   0  0  0  0  0  0  0  0  0  0  0  0
   -1.8792   -0.8875    0.0000 H   0  0  0  0  0  0  0  0  0  0  0  0
    0.3708   -4.1958    0.0000 H   0  0  0  0  0  0  0  0  0  0  0  0
    1.0875   -2.9542    0.0000 H   0  0  0  0  0  0  0  0  0  0  0  0
    3.9333   -2.9500    0.0000 H   0  0  0  0  0  0  0  0  0  0  0  0
    3.2199   -3.9615    0.0000 O   0  0  0  0  0  0  0  0  0  0  0  0
    4.6500   -1.7167    0.0000 H   0  0  0  0  0  0  0  0  0  0  0  0
    9.6927    0.2583    0.0000 C   0  0  0  0  0  0  0  0  0  0  0  0
   10.3977   -0.1702    0.0000 C   0  0  0  0  0  0  0  0  0  0  0  0
    9.7113    1.0831    0.0000 O   0  0  0  0  0  0  0  0  0  0  0  0
    9.0263    2.3455    0.0000 C   0  0  0  0  0  0  0  0  0  0  0  0
    9.7499    2.7418    0.0000 C   0  0  0  0  0  0  0  0  0  0  0  0
    8.3213    2.7740    0.0000 O   0  0  0  0  0  0  0  0  0  0  0  0
   10.4549    2.3133    0.0000 C   0  0  0  0  0  0  0  0  0  0  0  0
    9.7685    3.5666    0.0000 C   0  0  0  0  0  0  0  0  0  0  0  0
   11.1784    2.7096    0.0000 C   0  0  0  0  0  0  0  0  0  0  0  0
 41 42  1  0  0  0  0 
 15 20  1  1  0  0  0 
  3 10  1  1  0  0  0 
 16 21  1  6  0  0  0 
  3  4  1  0  0  0  0 
 17 22  1  1  0  0  0 
  4 11  1  6  0  0  0 
 41 46  1  0  0  0  0 
 42 43  1  0  0  0  0 
 43 44  1  0  0  0  0 
 44 45  1  0  0  0  0 
 45 46  1  0  0  0  0 
 22 23  1  0  0  0  0 
 45 47  1  0  0  0  0 
  4  5  1  0  0  0  0 
 45 48  1  0  0  0  0 
 13 24  1  0  0  0  0 
 44 49  1  1  0  0  0 
 25 26  1  0  0  0  0 
 43 50  1  6  0  0  0 
  1 12  1  0  0  0  0 
 41 51  1  1  0  0  0 
  5  6  1  0  0  0  0 
 42 52  1  1  0  0  0 
 13 14  1  0  0  0  0 
 52 53  1  0  0  0  0 
  1  2  1  0  0  0  0 
 40 54  1  6  0  0  0 
 25 28  1  0  0  0  0 
 38 55  1  6  0  0  0 
 26 27  1  0  0  0  0 
 34 56  1  1  0  0  0 
 27 30  1  0  0  0  0 
 29 57  1  1  0  0  0 
 29 28  1  0  0  0  0 
 27 58  1  0  0  0  0 
 29 30  1  0  0  0  0 
 27 59  1  1  0  0  0 
  5  7  1  1  0  0  0 
 26 60  1  1  0  0  0 
 61 60  1  0  0  0  0 
 61 62  1  0  0  0  0 
  7  8  1  0  0  0  0 
  1  6  1  0  0  0  0 
 29 33  1  0  0  0  0 
 30 31  1  0  0  0  0 
 31 32  1  0  0  0  0 
 61 66  1  0  0  0  0 
 62 63  1  0  0  0  0 
 63 64  1  0  0  0  0 
 64 65  1  0  0  0  0 
 65 66  1  0  0  0  0 
 32 34  1  0  0  0  0 
 63 67  1  1  0  0  0 
 33 34  1  0  0  0  0 
 67 68  1  0  0  0  0 
 13 18  1  0  0  0  0 
 67 69  2  0  0  0  0 
 64 24  1  6  0  0  0 
 14 15  1  0  0  0  0 
 65 70  1  1  0  0  0 
 66 12  1  6  0  0  0 
 15 16  1  0  0  0  0 
 13 71  1  6  0  0  0 
 16 17  1  0  0  0  0 
  1 72  1  6  0  0  0 
 33 36  1  0  0  0  0 
 61 73  1  6  0  0  0 
 34 38  1  0  0  0  0 
 30 74  1  6  0  0  0 
 37 35  2  0  0  0  0 
 59 75  1  0  0  0  0 
 35 36  1  0  0  0  0 
 33 76  1  6  0  0  0 
 37 38  1  0  0  0  0 
 50 77  1  0  0  0  0 
 17 18  1  0  0  0  0 
 77 78  1  0  0  0  0 
  2  9  1  6  0  0  0 
 77 79  2  0  0  0  0 
 14 19  1  6  0  0  0 
 49 80  1  0  0  0  0 
  2  3  1  0  0  0  0 
 80 81  1  0  0  0  0 
 37 41  1  0  0  0  0 
 80 82  2  0  0  0  0 
 38 39  1  0  0  0  0 
 81 83  2  0  0  0  0 
 39 40  1  0  0  0  0 
 81 84  1  0  0  0  0 
 40 42  1  0  0  0  0 
 83 85  1  0  0  0  0 
M  END
>  <MOLREGNO>
481788

>  <CHEMBLID>
CHEMBL507233

>  <SYNONYMS>
escin Ia

>  <MAX_PHASE>
0

>  <MOLWEIGHT>
1131.26

>  <ALOGP>


>  <PSA>


>  <HBA>


>  <HBD>


>  <RO5>


>  <RTB>


>  <RO3>


>  <ACD_MOST_APKA>


>  <ACD_MOST_BPKA>


>  <ACD_LOGP>


>  <ACD_LOGD>


>  <AROMATIC_RINGS>


>  <HEAVY_ATOMS>


>  <QED_WEIGHTED>


>  <HBA_LIPINSKI>


>  <HBD_LIPINSKI>


>  <NUM_LIPINSKI_RO5_VIOLATIONS>


>  <MW_MONOISOTOPIC>
1130.5509

>  <MOLECULAR_SPECIES>


>  <FULL_MOLFORMULA>
C55H86O24

$$$$

  CDK    9/16/09,9:19

 85 92  0  0  0  0  0  0  0  0999 V2000
    0.7864  -13.9686    0.0000 C   0  0  0  0  0  0  0  0  0  0  0  0
    0.7916  -14.7923    0.0000 C   0  0  0  0  0  0  0  0  0  0  0  0
    0.0812  -15.2045    0.0000 C   0  0  0  0  0  0  0  0  0  0  0  0
   -0.6356  -14.7953    0.0000 C   0  0  0  0  0  0  0  0  0  0  0  0
   -0.6373  -13.9694    0.0000 C   0  0  0  0  0  0  0  0  0  0  0  0
    0.0777  -13.5526    0.0000 O   0  0  0  0  0  0  0  0  0  0  0  0
   -1.3531  -13.5591    0.0000 C   0  0  0  0  0  0  0  0  0  0  0  0
   -2.0663  -13.9738    0.0000 O   0  0  0  0  0  0  0  0  0  0  0  0
    1.5078  -15.2018    0.0000 O   0  0  0  0  0  0  0  0  0  0  0  0
    0.0840  -16.0295    0.0000 O   0  0  0  0  0  0  0  0  0  0  0  0
   -1.3487  -15.2103    0.0000 O   0  0  0  0  0  0  0  0  0  0  0  0
    1.5011  -13.5564    0.0000 O   0  0  0  0  0  0  0  0  0  0  0  0
   -0.3365  -10.3595    0.0000 C   0  0  0  0  0  0  0  0  0  0  0  0
   -1.1594  -10.3575    0.0000 C   0  0  0  0  0  0  0  0  0  0  0  0
   -1.5694   -9.6458    0.0000 C   0  0  0  0  0  0  0  0  0  0  0  0
   -1.1581   -8.9303    0.0000 C   0  0  0  0  0  0  0  0  0  0  0  0
   -0.3322   -8.9310    0.0000 C   0  0  0  0  0  0  0  0  0  0  0  0
    0.0825   -9.6473    0.0000 O   0  0  0  0  0  0  0  0  0  0  0  0
   -1.5731  -11.0713    0.0000 O   0  0  0  0  0  0  0  0  0  0  0  0
   -2.3944   -9.6462    0.0000 O   0  0  0  0  0  0  0  0  0  0  0  0
   -1.5710   -8.2160    0.0000 O   0  0  0  0  0  0  0  0  0  0  0  0
    0.0802   -8.2165    0.0000 C   0  0  0  0  0  0  0  0  0  0  0  0
   -0.3324   -7.5021    0.0000 O   0  0  0  0  0  0  0  0  0  0  0  0
    0.0722  -11.0762    0.0000 O   0  0  0  0  0  0  0  0  0  0  0  0
    3.6458  -11.4875    0.0000 C   0  0  0  0  0  0  0  0  0  0  0  0
    3.6458  -12.3125    0.0000 C   0  0  0  0  0  0  0  0  0  0  0  0
    4.3579  -12.7208    0.0000 C   0  0  0  0  0  0  0  0  0  0  0  0
    4.3579  -11.0708    0.0000 C   0  0  0  0  0  0  0  0  0  0  0  0
    5.0699  -11.4875    0.0000 C   0  0  0  0  0  0  0  0  0  0  0  0
    5.0664  -12.3125    0.0000 C   0  0  0  0  0  0  0  0  0  0  0  0
    5.7751  -12.7257    0.0000 C   0  0  0  0  0  0  0  0  0  0  0  0
    6.4919  -12.3185    0.0000 C   0  0  0  0  0  0  0  0  0  0  0  0
    5.7821  -11.0757    0.0000 C   0  0  0  0  0  0  0  0  0  0  0  0
    6.4955  -11.4984    0.0000 C   0  0  0  0  0  0  0  0  0  0  0  0
    6.5125   -9.8431    0.0000 C   0  0  0  0  0  0  0  0  0  0  0  0
    5.7875  -10.2489    0.0000 C   0  0  0  0  0  0  0  0  0  0  0  0
    7.2258  -10.2658    0.0000 C   0  0  0  0  0  0  0  0  0  0  0  0
    7.2123  -11.0960    0.0000 C   0  0  0  0  0  0  0  0  0  0  0  0
    7.9206  -11.5204    0.0000 C   0  0  0  0  0  0  0  0  0  0  0  0
    8.6469  -11.1194    0.0000 C   0  0  0  0  0  0  0  0  0  0  0  0
    7.9477   -9.8600    0.0000 C   0  0  0  0  0  0  0  0  0  0  0  0
    8.6616  -10.2926    0.0000 C   0  0  0  0  0  0  0  0  0  0  0  0
    9.3891   -9.8928    0.0000 C   0  0  0  0  0  0  0  0  0  0  0  0
    9.4091   -9.0589    0.0000 C   0  0  0  0  0  0  0  0  0  0  0  0
    8.6952   -8.6264    0.0000 C   0  0  0  0  0  0  0  0  0  0  0  0
    7.9613   -9.0277    0.0000 C   0  0  0  0  0  0  0  0  0  0  0  0
    8.1042   -8.0375    0.0000 C   0  0  0  0  0  0  0  0  0  0  0  0
    9.2750   -8.0375    0.0000 C   0  0  0  0  0  0  0  0  0  0  0  0
   10.1327   -8.6626    0.0000 O   0  0  0  0  0  0  0  0  0  0  0  0
   10.0941  -10.3213    0.0000 O   0  0  0  0  0  0  0  0  0  0  0  0
    7.2292   -9.4458    0.0000 H   0  0  0  0  0  0  0  0  0  0  0  0
    9.3708  -10.7042    0.0000 C   0  0  0  0  0  0  0  0  0  0  0  0
    9.3690  -11.5292    0.0000 O   0  0  0  0  0  0  0  0  0  0  0  0
    7.9292  -10.7042    0.0000 O   0  0  0  0  0  0  0  0  0  0  0  0
    7.2042  -11.9208    0.0000 C   0  0  0  0  0  0  0  0  0  0  0  0
    6.4875  -10.6708    0.0000 C   0  0  0  0  0  0  0  0  0  0  0  0
    5.0625  -10.6625    0.0000 C   0  0  0  0  0  0  0  0  0  0  0  0
    3.7667  -13.3042    0.0000 C   0  0  0  0  0  0  0  0  0  0  0  0
    4.7625  -13.4333    0.0000 C   0  0  0  0  0  0  0  0  0  0  0  0
    2.9320  -12.7260    0.0000 O   0  0  0  0  0  0  0  0  0  0  0  0
    2.2169  -12.3146    0.0000 C   0  0  0  0  0  0  0  0  0  0  0  0
    2.2134  -11.4909    0.0000 O   0  0  0  0  0  0  0  0  0  0  0  0
    1.5024  -11.0795    0.0000 C   0  0  0  0  0  0  0  0  0  0  0  0
    0.7861  -11.4895    0.0000 C   0  0  0  0  0  0  0  0  0  0  0  0
    0.7853  -12.3155    0.0000 C   0  0  0  0  0  0  0  0  0  0  0  0
    1.5008  -12.7314    0.0000 C   0  0  0  0  0  0  0  0  0  0  0  0
    1.5043  -10.2545    0.0000 C   0  0  0  0  0  0  0  0  0  0  0  0
    2.2197   -9.8437    0.0000 O   0  0  0  0  0  0  0  0  0  0  0  0
    0.7908   -9.8403    0.0000 O   0  0  0  0  0  0  0  0  0  0  0  0
    0.0700  -12.7266    0.0000 O   0  0  0  0  0  0  0  0  0  0  0  0
   -0.7542  -11.0708    0.0000 H   0  0  0  0  0  0  0  0  0  0  0  0
    1.4958  -14.3792    0.0000 H   0  0  0  0  0  0  0  0  0  0  0  0
    2.2125  -13.1375    0.0000 H   0  0  0  0  0  0  0  0  0  0  0  0
    5.0583  -13.1333    0.0000 H   0  0  0  0  0  0  0  0  0  0  0  0
    4.3449  -14.1449    0.0000 O   0  0  0  0  0  0  0  0  0  0  0  0
    5.7750  -11.9000    0.0000 H   0  0  0  0  0  0  0  0  0  0  0  0
   10.8177   -9.9250    0.0000 C   0  0  0  0  0  0  0  0  0  0  0  0
   11.5227  -10.3535    0.0000 C   0  0  0  0  0  0  0  0  0  0  0  0
   10.8363   -9.1002    0.0000 O   0  0  0  0  0  0  0  0  0  0  0  0
   10.1513   -7.8378    0.0000 C   0  0  0  0  0  0  0  0  0  0  0  0
   10.8749   -7.4416    0.0000 C   0  0  0  0  0  0  0  0  0  0  0  0
    9.4463   -7.4093    0.0000 O   0  0  0  0  0  0  0  0  0  0  0  0
   10.8935   -6.6168    0.0000 C   0  0  0  0  0  0  0  0  0  0  0  0
   11.5799   -7.8700    0.0000 C   0  0  0  0  0  0  0  0  0  0  0  0
   11.5613   -8.6948    0.0000 C   0  0  0  0  0  0  0  0  0  0  0  0
 41 42  1  0  0  0  0 
 15 20  1  1  0  0  0 
  3 10  1  1  0  0  0 
 16 21  1  6  0  0  0 
  3  4  1  0  0  0  0 
 17 22  1  1  0  0  0 
  4 11  1  6  0  0  0 
 41 46  1  0  0  0  0 
 42 43  1  0  0  0  0 
 43 44  1  0  0  0  0 
 44 45  1  0  0  0  0 
 45 46  1  0  0  0  0 
 22 23  1  0  0  0  0 
 45 47  1  0  0  0  0 
  4  5  1  0  0  0  0 
 45 48  1  0  0  0  0 
 13 24  1  0  0  0  0 
 44 49  1  1  0  0  0 
 25 26  1  0  0  0  0 
 43 50  1  6  0  0  0 
  1 12  1  0  0  0  0 
 41 51  1  1  0  0  0 
  5  6  1  0  0  0  0 
 42 52  1  1  0  0  0 
 13 14  1  0  0  0  0 
 52 53  1  0  0  0  0 
  1  2  1  0  0  0  0 
 40 54  1  6  0  0  0 
 25 28  1  0  0  0  0 
 38 55  1  6  0  0  0 
 26 27  1  0  0  0  0 
 34 56  1  1  0  0  0 
 27 30  1  0  0  0  0 
 29 57  1  1  0  0  0 
 29 28  1  0  0  0  0 
 27 58  1  0  0  0  0 
 29 30  1  0  0  0  0 
 27 59  1  1  0  0  0 
  5  7  1  1  0  0  0 
 26 60  1  1  0  0  0 
 61 60  1  0  0  0  0 
 61 62  1  0  0  0  0 
  7  8  1  0  0  0  0 
  1  6  1  0  0  0  0 
 29 33  1  0  0  0  0 
 30 31  1  0  0  0  0 
 31 32  1  0  0  0  0 
 61 66  1  0  0  0  0 
 62 63  1  0  0  0  0 
 63 64  1  0  0  0  0 
 64 65  1  0  0  0  0 
 65 66  1  0  0  0  0 
 32 34  1  0  0  0  0 
 63 67  1  1  0  0  0 
 33 34  1  0  0  0  0 
 67 68  1  0  0  0  0 
 13 18  1  0  0  0  0 
 67 69  2  0  0  0  0 
 64 24  1  6  0  0  0 
 14 15  1  0  0  0  0 
 65 70  1  1  0  0  0 
 66 12  1  6  0  0  0 
 15 16  1  0  0  0  0 
 13 71  1  6  0  0  0 
 16 17  1  0  0  0  0 
  1 72  1  6  0  0  0 
 33 36  1  0  0  0  0 
 61 73  1  6  0  0  0 
 34 38  1  0  0  0  0 
 30 74  1  6  0  0  0 
 37 35  2  0  0  0  0 
 59 75  1  0  0  0  0 
 35 36  1  0  0  0  0 
 33 76  1  6  0  0  0 
 37 38  1  0  0  0  0 
 50 77  1  0  0  0  0 
 17 18  1  0  0  0  0 
 77 78  1  0  0  0  0 
  2  9  1  6  0  0  0 
 77 79  2  0  0  0  0 
 14 19  1  6  0  0  0 
 49 80  1  0  0  0  0 
  2  3  1  0  0  0  0 
 80 81  1  0  0  0  0 
 37 41  1  0  0  0  0 
 80 82  2  0  0  0  0 
 38 39  1  0  0  0  0 
 81 83  1  0  0  0  0 
 39 40  1  0  0  0  0 
 81 84  2  0  0  0  0 
 40 42  1  0  0  0  0 
 84 85  1  0  0  0  0 
M  END
>  <MOLREGNO>
481789

>  <CHEMBLID>
CHEMBL505939

>  <SYNONYMS>
escin Ib

>  <MAX_PHASE>
0

>  <MOLWEIGHT>
1131.26

>  <ALOGP>


>  <PSA>


>  <HBA>


>  <HBD>


>  <RO5>


>  <RTB>


>  <RO3>


>  <ACD_MOST_APKA>


>  <ACD_MOST_BPKA>


>  <ACD_LOGP>


>  <ACD_LOGD>


>  <AROMATIC_RINGS>


>  <HEAVY_ATOMS>


>  <QED_WEIGHTED>


>  <HBA_LIPINSKI>


>  <HBD_LIPINSKI>


>  <NUM_LIPINSKI_RO5_VIOLATIONS>


>  <MW_MONOISOTOPIC>
1130.5509

>  <MOLECULAR_SPECIES>


>  <FULL_MOLFORMULA>
C55H86O24

$$$$

  SciTegic12231509382D

 26 29  0  0  0  0            999 V2000
    5.2540  -22.9845    0.0000 N   0  3
    4.5317  -23.3931    0.0000 C   0  0
    5.9638  -24.2186    0.0000 C   0  0
    3.8218  -22.9845    0.0000 C   0  0
    5.9638  -23.3973    0.0000 C   0  0
    4.5317  -24.2145    0.0000 C   0  0
    3.8259  -22.1632    0.0000 C   0  0
    6.6737  -24.6313    0.0000 C   0  0
    5.2416  -24.6272    0.0000 C   0  0
    3.1161  -23.3931    0.0000 C   0  0
    2.4062  -22.9845    0.0000 C   0  0
    3.1161  -21.7505    0.0000 C   0  0
    2.4144  -22.1632    0.0000 C   0  0
    5.2540  -22.1632    0.0000 C   0  0
    6.6737  -25.4485    0.0000 C   0  0
    4.5358  -21.7422    0.0000 C   0  0
    5.2416  -25.4526    0.0000 C   0  0
    5.9515  -25.8695    0.0000 C   0  0
    7.4455  -24.3795    0.0000 O   0  0
    1.6303  -23.2322    0.0000 O   0  0
    1.6303  -21.9073    0.0000 O   0  0
    7.4579  -25.6961    0.0000 O   0  0
    8.0522  -24.9161    0.0000 C   0  0
    1.4610  -21.1066    0.0000 C   0  0
    1.0236  -22.6832    0.0000 C   0  0
    7.6312  -26.4927    0.0000 C   0  0
  2  1  1  0
  3  5  1  0
  4  2  1  0
  5  1  2  0
  6  2  2  0
  7 16  1  0
  8  3  2  0
  9  3  1  0
 10  4  2  0
 11 10  1  0
 12  7  2  0
 13 12  1  0
 14  1  1  0
 15  8  1  0
 16 14  1  0
 17  9  2  0
 18 17  1  0
 19  8  1  0
 20 11  1  0
 21 13  1  0
 22 15  1  0
 23 19  1  0
 24 21  1  0
 25 20  1  0
 26 22  1  0
  4  7  1  0
  6  9  1  0
 11 13  2  0
 15 18  2  0
M  CHG  1   1   1
M  END
>  <MOLREGNO>
341112

>  <CHEMBLID>
CHEMBL206106

>  <SYNONYMS>
Palmatine Chloride Hydrate | GNF-Pf-4086 | Palmatine Trifluoroacetate

>  <MAX_PHASE>
0

>  <MOLWEIGHT>
352.4

>  <ALOGP>
4.16

>  <PSA>
40.79

>  <HBA>
4

>  <HBD>
0

>  <RO5>
0

>  <RTB>
4

>  <RO3>
N

>  <ACD_MOST_APKA>


>  <ACD_MOST_BPKA>


>  <ACD_LOGP>
-.34

>  <ACD_LOGD>
-.34

>  <AROMATIC_RINGS>
3

>  <HEAVY_ATOMS>
26

>  <QED_WEIGHTED>
.66

>  <HBA_LIPINSKI>
5

>  <HBD_LIPINSKI>
0

>  <NUM_LIPINSKI_RO5_VIOLATIONS>
0

>  <MW_MONOISOTOPIC>
352.1549

>  <MOLECULAR_SPECIES>


>  <FULL_MOLFORMULA>
C21H22NO4

$$$$

  SciTegic01161211232D

 44 48  0  0  0  0            999 V2000
    1.5021  -10.2835    0.0000 C   0  0
    1.5010   -9.4565    0.0000 C   0  0
    2.2155   -9.0438    0.0000 C   0  0
    2.2137  -10.6962    0.0000 C   0  0
    2.9289  -10.2872    0.0000 C   0  0
    2.9323   -9.4590    0.0000 C   0  0
    3.6472   -9.0502    0.0000 C   0  0
    4.3633   -9.4649    0.0000 C   0  0
    4.3599  -10.2930    0.0000 C   0  0  2  0  0  0
    3.6404  -10.7064    0.0000 O   0  0
    5.0715  -10.7069    0.0000 C   0  0
    5.7873  -10.2951    0.0000 C   0  0
    6.4997  -10.7089    0.0000 C   0  0
    6.4976  -11.5345    0.0000 C   0  0
    5.7772  -11.9445    0.0000 C   0  0
    5.0676  -11.5282    0.0000 C   0  0
    7.2100  -11.9500    0.0000 O   0  0
    7.9260  -11.5408    0.0000 C   0  0
    7.2150  -10.2984    0.0000 O   0  0
    3.6494   -8.2255    0.0000 O   0  0
    2.2160   -8.2191    0.0000 O   0  0
    0.7879  -10.6958    0.0000 O   0  0
    0.7877  -11.5204    0.0000 C   0  0  2  0  0  0
    0.0752  -11.9287    0.0000 O   0  0
    0.0730  -12.7498    0.0000 C   0  0  1  0  0  0
    0.7852  -13.1661    0.0000 C   0  0  2  0  0  0
    1.5013  -12.7553    0.0000 C   0  0  1  0  0  0
    1.5052  -11.9279    0.0000 C   0  0  1  0  0  0
    2.2188  -11.5147    0.0000 O   0  0
    2.2140  -13.1702    0.0000 O   0  0
    0.7819  -13.9908    0.0000 O   0  0
   -0.6429  -13.1592    0.0000 C   0  0
   -1.3554  -12.7441    0.0000 O   0  0
   -2.0713  -13.1535    0.0000 C   0  0  2  0  0  0
   -2.7840  -12.7374    0.0000 O   0  0
   -3.4977  -13.1434    0.0000 C   0  0  2  0  0  0
   -3.5053  -13.9684    0.0000 C   0  0  1  0  0  0
   -2.7930  -14.3857    0.0000 C   0  0  2  0  0  0
   -2.0730  -13.9782    0.0000 C   0  0  1  0  0  0
   -4.2088  -12.7255    0.0000 C   0  0
   -1.3611  -14.3943    0.0000 O   0  0
   -2.7991  -15.2104    0.0000 O   0  0
   -4.2228  -14.3751    0.0000 O   0  0
    0.0667  -13.5739    0.0000 H   0  0
  3 21  1  0
  9 10  1  0
  1 22  1  0
  5  6  1  0
 23 22  1  1
 23 24  1  0
 11 12  2  0
  2  3  1  0
 12 13  1  0
  3  6  2  0
 23 28  1  0
 24 25  1  0
 25 26  1  0
 26 27  1  0
 27 28  1  0
 13 14  2  0
 28 29  1  6
  1  2  2  0
 27 30  1  1
 14 15  1  0
 26 31  1  6
  5  4  2  0
 25 32  1  0
 15 16  2  0
 32 33  1  0
 16 11  1  0
 34 33  1  1
 34 35  1  0
  9 11  1  1
  4  1  1  0
 14 17  1  0
  5 10  1  0
 17 18  1  0
 34 39  1  0
 35 36  1  0
 36 37  1  0
 37 38  1  0
 38 39  1  0
  6  7  1  0
 36 40  1  6
 13 19  1  0
 39 41  1  6
  7  8  1  0
 38 42  1  6
  7 20  2  0
 37 43  1  1
  8  9  1  0
 25 44  1  6
M  END
>  <MOLREGNO>
442830

>  <CHEMBLID>
CHEMBL449317

>  <SYNONYMS>
NSC-31048 | HESPERIDIN

>  <MAX_PHASE>
3

>  <MOLWEIGHT>
610.56

>  <ALOGP>
-.43

>  <PSA>
234.28

>  <HBA>
15

>  <HBD>
8

>  <RO5>
3

>  <RTB>
7

>  <RO3>
N

>  <ACD_MOST_APKA>
7.15

>  <ACD_MOST_BPKA>


>  <ACD_LOGP>
-1.21

>  <ACD_LOGD>
-1.65

>  <AROMATIC_RINGS>
2

>  <HEAVY_ATOMS>
43

>  <QED_WEIGHTED>
.2

>  <HBA_LIPINSKI>
15

>  <HBD_LIPINSKI>
8

>  <NUM_LIPINSKI_RO5_VIOLATIONS>
2

>  <MW_MONOISOTOPIC>
610.1898

>  <MOLECULAR_SPECIES>
NEUTRAL

>  <FULL_MOLFORMULA>
C28H34O15

$$$$

  CDK    9/16/09,9:20

 44 48  0  0  0  0  0  0  0  0999 V2000
   15.1077  -10.4194    0.0000 C   0  0  0  0  0  0  0  0  0  0  0  0
   15.1157   -9.5953    0.0000 O   0  0  0  0  0  0  0  0  0  0  0  0
   14.4071   -9.1805    0.0000 C   0  0  0  0  0  0  0  0  0  0  0  0
   13.6891   -9.5869    0.0000 C   0  0  0  0  0  0  0  0  0  0  0  0
   13.6842  -10.4124    0.0000 C   0  0  0  0  0  0  0  0  0  0  0  0
   14.3973  -10.8317    0.0000 C   0  0  0  0  0  0  0  0  0  0  0  0
   12.9780   -9.1692    0.0000 O   0  0  0  0  0  0  0  0  0  0  0  0
   14.4132   -8.3559    0.0000 C   0  0  0  0  0  0  0  0  0  0  0  0
   12.9673  -10.8198    0.0000 O   0  0  0  0  0  0  0  0  0  0  0  0
   14.3951  -11.6564    0.0000 O   0  0  0  0  0  0  0  0  0  0  0  0
   17.9993  -11.9991    0.0000 C   0  0  0  0  0  0  0  0  0  0  0  0
   17.9981  -12.8261    0.0000 C   0  0  0  0  0  0  0  0  0  0  0  0
   18.7127  -13.2388    0.0000 C   0  0  0  0  0  0  0  0  0  0  0  0
   18.7109  -11.5865    0.0000 C   0  0  0  0  0  0  0  0  0  0  0  0
   19.4259  -11.9955    0.0000 C   0  0  0  0  0  0  0  0  0  0  0  0
   19.4247  -12.8282    0.0000 C   0  0  0  0  0  0  0  0  0  0  0  0
   20.1413  -13.2432    0.0000 C   0  0  0  0  0  0  0  0  0  0  0  0
   20.8637  -12.8302    0.0000 C   0  0  0  0  0  0  0  0  0  0  0  0
   20.8649  -11.9976    0.0000 C   0  0  0  0  0  0  0  0  0  0  0  0
   20.1437  -11.5778    0.0000 O   0  0  0  0  0  0  0  0  0  0  0  0
   20.1390  -14.0679    0.0000 O   0  0  0  0  0  0  0  0  0  0  0  0
   21.5784  -11.5895    0.0000 C   0  0  0  0  0  0  0  0  0  0  0  0
   22.2918  -12.0054    0.0000 C   0  0  0  0  0  0  0  0  0  0  0  0
   23.0065  -11.5954    0.0000 C   0  0  0  0  0  0  0  0  0  0  0  0
   23.0090  -10.7699    0.0000 C   0  0  0  0  0  0  0  0  0  0  0  0
   22.2908  -10.3559    0.0000 C   0  0  0  0  0  0  0  0  0  0  0  0
   21.5790  -10.7683    0.0000 C   0  0  0  0  0  0  0  0  0  0  0  0
   23.7236  -10.3583    0.0000 O   0  0  0  0  0  0  0  0  0  0  0  0
   18.7124  -14.0635    0.0000 O   0  0  0  0  0  0  0  0  0  0  0  0
   17.2839  -11.5873    0.0000 O   0  0  0  0  0  0  0  0  0  0  0  0
   17.2597  -10.7630    0.0000 C   0  0  0  0  0  0  0  0  0  0  0  0
   17.9648  -10.3340    0.0000 O   0  0  0  0  0  0  0  0  0  0  0  0
   17.9426   -9.5132    0.0000 C   0  0  0  0  0  0  0  0  0  0  0  0
   17.2183   -9.1182    0.0000 C   0  0  0  0  0  0  0  0  0  0  0  0
   16.5148   -9.5501    0.0000 C   0  0  0  0  0  0  0  0  0  0  0  0
   16.5354  -10.3771    0.0000 C   0  0  0  0  0  0  0  0  0  0  0  0
   15.7901   -9.1565    0.0000 O   0  0  0  0  0  0  0  0  0  0  0  0
   18.6460   -9.0828    0.0000 C   0  0  0  0  0  0  0  0  0  0  0  0
   18.6249   -8.2583    0.0000 O   0  0  0  0  0  0  0  0  0  0  0  0
   17.1972   -8.2938    0.0000 O   0  0  0  0  0  0  0  0  0  0  0  0
   15.8337  -10.8105    0.0000 O   0  0  0  0  0  0  0  0  0  0  0  0
   15.8184  -10.0000    0.0000 H   0  0  0  0  0  0  0  0  0  0  0  0
   22.2899   -9.5313    0.0000 O   0  0  0  0  0  0  0  0  0  0  0  0
   24.4373  -10.7715    0.0000 C   0  0  0  0  0  0  0  0  0  0  0  0
  3  4  1  0  0  0  0 
  4  5  1  0  0  0  0 
 22 23  2  0  0  0  0 
 11 12  2  0  0  0  0 
 23 24  1  0  0  0  0 
  5  6  1  0  0  0  0 
 24 25  2  0  0  0  0 
 12 13  1  0  0  0  0 
 25 26  1  0  0  0  0 
 13 16  2  0  0  0  0 
 26 27  2  0  0  0  0 
 27 22  1  0  0  0  0 
 19 22  1  6  0  0  0 
  1  2  1  0  0  0  0 
 25 28  1  0  0  0  0 
 15 14  2  0  0  0  0 
 13 29  1  0  0  0  0 
 14 11  1  0  0  0  0 
 11 30  1  0  0  0  0 
 15 16  1  0  0  0  0 
 31 30  1  1  0  0  0 
 31 32  1  0  0  0  0 
  4  7  1  1  0  0  0 
  3  8  1  6  0  0  0 
  1  6  1  0  0  0  0 
  5  9  1  6  0  0  0 
 31 36  1  0  0  0  0 
 32 33  1  0  0  0  0 
 33 34  1  0  0  0  0 
 34 35  1  0  0  0  0 
 35 36  1  0  0  0  0 
  2  3  1  0  0  0  0 
 35 37  1  1  0  0  0 
 15 20  1  0  0  0  0 
 33 38  1  1  0  0  0 
 16 17  1  0  0  0  0 
 38 39  1  0  0  0  0 
 17 18  1  0  0  0  0 
 34 40  1  6  0  0  0 
 18 19  1  0  0  0  0 
 36 41  1  6  0  0  0 
 41  1  1  0  0  0  0 
 19 20  1  0  0  0  0 
  1 42  1  6  0  0  0 
  6 10  1  6  0  0  0 
 26 43  1  0  0  0  0 
 17 21  2  0  0  0  0 
 28 44  1  0  0  0  0 
M  END
>  <MOLREGNO>
504288

>  <CHEMBLID>
CHEMBL506398

>  <SYNONYMS>
Neohesperidin

>  <MAX_PHASE>
0

>  <MOLWEIGHT>
610.56

>  <ALOGP>
-.43

>  <PSA>
234.28

>  <HBA>
15

>  <HBD>
8

>  <RO5>
3

>  <RTB>
7

>  <RO3>
N

>  <ACD_MOST_APKA>
7.14

>  <ACD_MOST_BPKA>


>  <ACD_LOGP>
-.89

>  <ACD_LOGD>
-1.34

>  <AROMATIC_RINGS>
2

>  <HEAVY_ATOMS>
43

>  <QED_WEIGHTED>
.2

>  <HBA_LIPINSKI>
15

>  <HBD_LIPINSKI>
8

>  <NUM_LIPINSKI_RO5_VIOLATIONS>
2

>  <MW_MONOISOTOPIC>
610.1898

>  <MOLECULAR_SPECIES>
NEUTRAL

>  <FULL_MOLFORMULA>
C28H34O15

$$$$

  CDK    9/16/09,9:20

 38 44  0  0  0  0  0  0  0  0999 V2000
    5.5455  -23.5563    0.0000 C   0  0  0  0  0  0  0  0  0  0  0  0
    4.8364  -23.9730    0.0000 C   0  0  0  0  0  0  0  0  0  0  0  0
    4.2261  -24.5282    0.0000 C   0  0  0  0  0  0  0  0  0  0  0  0
    4.2311  -25.3566    0.0000 C   0  0  0  0  0  0  0  0  0  0  0  0
    3.5220  -25.7733    0.0000 C   0  0  0  0  0  0  0  0  0  0  0  0
    3.5249  -26.5981    0.0000 O   0  0  0  0  0  0  0  0  0  0  0  0
    2.8008  -25.3658    0.0000 C   0  0  0  0  0  0  0  0  0  0  0  0
    2.7957  -24.5374    0.0000 C   0  0  0  0  0  0  0  0  0  0  0  0
    3.5048  -24.1208    0.0000 C   0  0  0  0  0  0  0  0  0  0  0  0
    2.7264  -24.3817    0.0000 C   0  0  0  0  0  0  0  0  0  0  0  0
    2.1049  -23.8353    0.0000 O   0  0  0  0  0  0  0  0  0  0  0  0
    2.2712  -23.0272    0.0000 C   0  0  0  0  0  0  0  0  0  0  0  0
    1.6534  -22.4787    0.0000 O   0  0  0  0  0  0  0  0  0  0  0  0
    3.0532  -22.7641    0.0000 C   0  0  0  0  0  0  0  0  0  0  0  0
    3.6711  -23.3127    0.0000 C   0  0  0  0  0  0  0  0  0  0  0  0
    4.4926  -23.2194    0.0000 O   0  0  0  0  0  0  0  0  0  0  0  0
    2.0766  -24.1337    0.0000 C   0  0  0  0  0  0  0  0  0  0  0  0
    1.3675  -24.5503    0.0000 C   0  0  0  0  0  0  0  0  0  0  0  0
    1.3704  -25.3751    0.0000 C   0  0  0  0  0  0  0  0  0  0  0  0
    2.0917  -25.7826    0.0000 C   0  0  0  0  0  0  0  0  0  0  0  0
    2.0967  -26.6110    0.0000 C   0  0  0  0  0  0  0  0  0  0  0  0
    2.8093  -26.1921    0.0000 O   0  0  0  0  0  0  0  0  0  0  0  0
    1.3876  -27.0277    0.0000 C   0  0  0  0  0  0  0  0  0  0  0  0
    1.3905  -27.8525    0.0000 O   0  0  0  0  0  0  0  0  0  0  0  0
    0.6664  -26.6203    0.0000 O   0  0  0  0  0  0  0  0  0  0  0  0
    0.6613  -25.7918    0.0000 C   0  0  0  0  0  0  0  0  0  0  0  0
   -0.0578  -25.3880    0.0000 C   0  0  0  0  0  0  0  0  0  0  0  0
   -0.8079  -25.7297    0.0000 C   0  0  0  0  0  0  0  0  0  0  0  0
   -1.3631  -25.1193    0.0000 O   0  0  0  0  0  0  0  0  0  0  0  0
   -0.9592  -24.4002    0.0000 C   0  0  0  0  0  0  0  0  0  0  0  0
   -0.1512  -24.5664    0.0000 C   0  0  0  0  0  0  0  0  0  0  0  0
    5.3255  -24.6364    0.0000 C   0  0  0  0  0  0  0  0  0  0  0  0
    3.3863  -24.7739    0.0000 C   0  0  0  0  0  0  0  0  0  0  0  0
    1.3638  -26.2047    0.0000 C   0  0  0  0  0  0  0  0  0  0  0  0
    2.3079  -27.4091    0.0000 H   0  0  0  0  0  0  0  0  0  0  0  0
    4.2213  -23.6955    0.0000 H   0  0  0  0  0  0  0  0  0  0  0  0
    3.8814  -22.5038    0.0000 H   0  0  0  0  0  0  0  0  0  0  0  0
    2.2030  -25.1221    0.0000 H   0  0  0  0  0  0  0  0  0  0  0  0
  5  7  1  0  0  0  0 
  7  8  1  0  0  0  0 
  8  9  1  0  0  0  0 
  3  9  1  0  0  0  0 
  9 10  1  6  0  0  0 
 10 11  1  0  0  0  0 
 11 12  1  0  0  0  0 
 12 13  2  0  0  0  0 
 12 14  1  0  0  0  0 
 14 15  1  0  0  0  0 
  9 15  1  0  0  0  0 
 15 16  1  0  0  0  0 
  2 16  1  0  0  0  0 
  8 17  1  0  0  0  0 
 17 18  1  0  0  0  0 
 18 19  1  0  0  0  0 
 19 20  1  0  0  0  0 
  7 20  1  0  0  0  0 
 20 21  1  0  0  0  0 
 21 22  1  0  0  0  0 
 20 22  1  6  0  0  0 
 21 23  1  0  0  0  0 
 23 24  2  0  0  0  0 
 23 25  1  0  0  0  0 
 25 26  1  0  0  0  0 
 19 26  1  0  0  0  0 
 26 27  1  1  0  0  0 
 27 28  2  0  0  0  0 
 28 29  1  0  0  0  0 
 29 30  1  0  0  0  0 
 30 31  2  0  0  0  0 
 27 31  1  0  0  0  0 
  2 32  1  0  0  0  0 
  7 33  1  6  0  0  0 
  1  2  1  0  0  0  0 
 19 34  1  1  0  0  0 
  2  3  1  0  0  0  0 
 21 35  1  1  0  0  0 
  3  4  1  0  0  0  0 
  3 36  1  1  0  0  0 
  4  5  1  0  0  0  0 
 15 37  1  1  0  0  0 
  5  6  2  0  0  0  0 
  8 38  1  1  0  0  0 
M  END
>  <MOLREGNO>
463229

>  <CHEMBLID>
CHEMBL517449

>  <SYNONYMS>
Limonin

>  <MAX_PHASE>
0

>  <MOLWEIGHT>
470.51

>  <ALOGP>
1.45

>  <PSA>
104.57

>  <HBA>
7

>  <HBD>
0

>  <RO5>
0

>  <RTB>
1

>  <RO3>
N

>  <ACD_MOST_APKA>


>  <ACD_MOST_BPKA>


>  <ACD_LOGP>
.47

>  <ACD_LOGD>
.47

>  <AROMATIC_RINGS>
1

>  <HEAVY_ATOMS>
34

>  <QED_WEIGHTED>
.57

>  <HBA_LIPINSKI>
8

>  <HBD_LIPINSKI>
0

>  <NUM_LIPINSKI_RO5_VIOLATIONS>
0

>  <MW_MONOISOTOPIC>
470.1941

>  <MOLECULAR_SPECIES>


>  <FULL_MOLFORMULA>
C26H30O8

$$$$

  CDK    8/10/10,12:22

 22 24  0  0  0  0  0  0  0  0999 V2000
   11.1184    0.6122    0.0000 C   0  0  0  0  0  0  0  0  0  0  0  0
   11.1172   -0.2147    0.0000 C   0  0  0  0  0  0  0  0  0  0  0  0
   11.8316   -0.6274    0.0000 C   0  0  0  0  0  0  0  0  0  0  0  0
   11.8298    1.0248    0.0000 C   0  0  0  0  0  0  0  0  0  0  0  0
   12.5449    0.6159    0.0000 C   0  0  0  0  0  0  0  0  0  0  0  0
   12.5483   -0.2168    0.0000 C   0  0  0  0  0  0  0  0  0  0  0  0
   13.2672   -0.6279    0.0000 C   0  0  0  0  0  0  0  0  0  0  0  0
   13.9873   -0.2109    0.0000 C   0  0  0  0  0  0  0  0  0  0  0  0
   13.9839    0.6218    0.0000 C   0  0  0  0  0  0  0  0  0  0  0  0
   13.2604    1.0375    0.0000 O   0  0  0  0  0  0  0  0  0  0  0  0
   13.2695   -1.4525    0.0000 O   0  0  0  0  0  0  0  0  0  0  0  0
   11.8302   -1.4520    0.0000 O   0  0  0  0  0  0  0  0  0  0  0  0
   10.4041    1.0244    0.0000 O   0  0  0  0  0  0  0  0  0  0  0  0
   14.6967    1.0363    0.0000 C   0  0  0  0  0  0  0  0  0  0  0  0
   15.4112    0.6241    0.0000 C   0  0  0  0  0  0  0  0  0  0  0  0
   16.1236    1.0379    0.0000 C   0  0  0  0  0  0  0  0  0  0  0  0
   16.1215    1.8634    0.0000 C   0  0  0  0  0  0  0  0  0  0  0  0
   15.4011    2.2734    0.0000 C   0  0  0  0  0  0  0  0  0  0  0  0
   14.6917    1.8572    0.0000 C   0  0  0  0  0  0  0  0  0  0  0  0
   16.8339    2.2790    0.0000 O   0  0  0  0  0  0  0  0  0  0  0  0
   16.8389    0.6275    0.0000 O   0  0  0  0  0  0  0  0  0  0  0  0
   17.5499    1.8698    0.0000 C   0  0  0  0  0  0  0  0  0  0  0  0
  5  6  1  0  0  0  0 
  7 11  2  0  0  0  0 
  3 12  1  0  0  0  0 
  2  3  1  0  0  0  0 
  1 13  1  0  0  0  0 
  3  6  2  0  0  0  0 
  9 14  1  6  0  0  0 
  1  2  2  0  0  0  0 
 14 15  2  0  0  0  0 
  5  4  2  0  0  0  0 
 15 16  1  0  0  0  0 
  4  1  1  0  0  0  0 
 16 17  2  0  0  0  0 
  5 10  1  0  0  0  0 
 17 18  1  0  0  0  0 
  6  7  1  0  0  0  0 
 18 19  2  0  0  0  0 
 19 14  1  0  0  0  0 
  7  8  1  0  0  0  0 
 17 20  1  0  0  0  0 
  8  9  1  0  0  0  0 
 16 21  1  0  0  0  0 
  9 10  1  0  0  0  0 
 20 22  1  0  0  0  0 
M  END
>  <MOLREGNO>
421346

>  <CHEMBLID>
CHEMBL399121

>  <SYNONYMS>
NSC-57654

>  <MAX_PHASE>
0

>  <MOLWEIGHT>
302.28

>  <ALOGP>
2.36

>  <PSA>
96.22

>  <HBA>
6

>  <HBD>
3

>  <RO5>
0

>  <RTB>
2

>  <RO3>
N

>  <ACD_MOST_APKA>
7.5

>  <ACD_MOST_BPKA>


>  <ACD_LOGP>
1.94

>  <ACD_LOGD>
1.53

>  <AROMATIC_RINGS>
2

>  <HEAVY_ATOMS>
22

>  <QED_WEIGHTED>
.79

>  <HBA_LIPINSKI>
6

>  <HBD_LIPINSKI>
3

>  <NUM_LIPINSKI_RO5_VIOLATIONS>
0

>  <MW_MONOISOTOPIC>
302.079

>  <MOLECULAR_SPECIES>
NEUTRAL

>  <FULL_MOLFORMULA>
C16H14O6

$$$$

  SciTegic01161211212D

 22 24  0  0  0  0            999 V2000
    5.7912  -24.9055    0.0000 C   0  0
    5.7912  -25.7305    0.0000 C   0  0
    5.0749  -26.1450    0.0000 C   0  0
    5.0749  -26.9700    0.0000 O   0  0
    4.3626  -25.7305    0.0000 C   0  0
    3.6462  -26.1450    0.0000 C   0  0
    3.6462  -26.9700    0.0000 O   0  0
    2.9340  -25.7305    0.0000 C   0  0
    2.9340  -24.9055    0.0000 C   0  0
    2.2217  -24.4951    0.0000 O   0  0
    3.6462  -24.4951    0.0000 C   0  0
    4.3626  -24.9055    0.0000 C   0  0
    5.0749  -24.4951    0.0000 O   0  0
    6.5076  -24.4951    0.0000 C   0  0
    6.5076  -23.6701    0.0000 C   0  0
    7.2198  -23.2556    0.0000 C   0  0
    7.2198  -22.4306    0.0000 O   0  0
    7.9362  -23.6701    0.0000 C   0  0
    8.6527  -23.2556    0.0000 O   0  0
    9.3607  -23.6701    0.0000 C   0  0
    7.9362  -24.4951    0.0000 C   0  0
    7.2198  -24.9055    0.0000 C   0  0
  1  2  2  0
  2  3  1  0
  3  4  2  0
  3  5  1  0
  5  6  1  0
  6  7  1  0
  6  8  2  0
  8  9  1  0
  9 10  1  0
  9 11  2  0
 11 12  1  0
  5 12  2  0
 12 13  1  0
  1 13  1  0
  1 14  1  0
 14 15  1  0
 15 16  2  0
 16 17  1  0
 16 18  1  0
 18 19  1  0
 19 20  1  0
 18 21  2  0
 21 22  1  0
 14 22  2  0
M  END
>  <MOLREGNO>
145542

>  <CHEMBLID>
CHEMBL90568

>  <SYNONYMS>
Diosmetine | Diosmetin

>  <MAX_PHASE>
0

>  <MOLWEIGHT>
300.26

>  <ALOGP>
2.39

>  <PSA>
96.22

>  <HBA>
6

>  <HBD>
3

>  <RO5>
0

>  <RTB>
2

>  <RO3>
N

>  <ACD_MOST_APKA>
6.5

>  <ACD_MOST_BPKA>


>  <ACD_LOGP>
2.88

>  <ACD_LOGD>
1.65

>  <AROMATIC_RINGS>
2

>  <HEAVY_ATOMS>
22

>  <QED_WEIGHTED>
.79

>  <HBA_LIPINSKI>
6

>  <HBD_LIPINSKI>
3

>  <NUM_LIPINSKI_RO5_VIOLATIONS>
0

>  <MW_MONOISOTOPIC>
300.0634

>  <MOLECULAR_SPECIES>
ACID

>  <FULL_MOLFORMULA>
C16H12O6

$$$$

  CDK    9/16/09,9:58

 23 26  0  0  0  0  0  0  0  0999 V2000
   -1.9380  -13.4031    0.0000 C   0  0  0  0  0  0  0  0  0  0  0  0
   -2.3505  -14.1203    0.0000 C   0  0  0  0  0  0  0  0  0  0  0  0
   -1.9380  -14.8328    0.0000 C   0  0  0  0  0  0  0  0  0  0  0  0
   -1.1130  -14.8328    0.0000 C   0  0  0  0  0  0  0  0  0  0  0  0
   -0.7005  -14.1203    0.0000 C   0  0  0  0  0  0  0  0  0  0  0  0
   -1.1130  -13.4031    0.0000 O   0  0  0  0  0  0  0  0  0  0  0  0
    0.1245  -14.1203    0.0000 C   0  0  0  0  0  0  0  0  0  0  0  0
    0.5370  -14.8328    0.0000 C   0  0  0  0  0  0  0  0  0  0  0  0
    0.1245  -15.5500    0.0000 C   0  0  0  0  0  0  0  0  0  0  0  0
   -0.7005  -15.5500    0.0000 C   0  0  0  0  0  0  0  0  0  0  0  0
   -2.4902  -15.4477    0.0000 O   0  0  0  0  0  0  0  0  0  0  0  0
   -3.1602  -14.2906    0.0000 C   0  0  0  0  0  0  0  0  0  0  0  0
   -3.2459  -15.1106    0.0000 C   0  0  0  0  0  0  0  0  0  0  0  0
   -3.8256  -13.8076    0.0000 C   0  0  0  0  0  0  0  0  0  0  0  0
   -4.5814  -14.1401    0.0000 C   0  0  0  0  0  0  0  0  0  0  0  0
   -4.6670  -14.9601    0.0000 C   0  0  0  0  0  0  0  0  0  0  0  0
   -3.9971  -15.4477    0.0000 C   0  0  0  0  0  0  0  0  0  0  0  0
   -2.3505  -12.6905    0.0000 O   0  0  0  0  0  0  0  0  0  0  0  0
    1.3620  -14.8328    0.0000 O   0  0  0  0  0  0  0  0  0  0  0  0
    1.7745  -15.5500    0.0000 C   0  0  0  0  0  0  0  0  0  0  0  0
   -5.4182  -15.2971    0.0000 O   0  0  0  0  0  0  0  0  0  0  0  0
   -5.2468  -13.6570    0.0000 O   0  0  0  0  0  0  0  0  0  0  0  0
   -1.1130  -16.2626    0.0000 O   0  0  0  0  0  0  0  0  0  0  0  0
  1  2  1  0  0  0  0 
  2  3  2  0  0  0  0 
  3  4  1  0  0  0  0 
  4  5  1  0  0  0  0 
  5  6  1  0  0  0  0 
  1  6  1  0  0  0  0 
  7  8  1  0  0  0  0 
  8  9  2  0  0  0  0 
  9 10  1  0  0  0  0 
  4 10  2  0  0  0  0 
  5  7  2  0  0  0  0 
 12 13  1  0  0  0  0 
 11 13  1  0  0  0  0 
 14 15  1  0  0  0  0 
 15 16  2  0  0  0  0 
 16 17  1  0  0  0  0 
 13 17  2  0  0  0  0 
 12 14  2  0  0  0  0 
  2 12  1  0  0  0  0 
  3 11  1  0  0  0  0 
  1 18  2  0  0  0  0 
 19 20  1  0  0  0  0 
  8 19  1  0  0  0  0 
 16 21  1  0  0  0  0 
 15 22  1  0  0  0  0 
 10 23  1  0  0  0  0 
M  END
>  <MOLREGNO>
158766

>  <CHEMBLID>
CHEMBL97453

>  <SYNONYMS>
Wedelolactone

>  <MAX_PHASE>
0

>  <MOLWEIGHT>
314.25

>  <ALOGP>
2.8

>  <PSA>
109.36

>  <HBA>
6

>  <HBD>
3

>  <RO5>
0

>  <RTB>
1

>  <RO3>
N

>  <ACD_MOST_APKA>
6.9

>  <ACD_MOST_BPKA>


>  <ACD_LOGP>
3.01

>  <ACD_LOGD>
2.41

>  <AROMATIC_RINGS>
3

>  <HEAVY_ATOMS>
23

>  <QED_WEIGHTED>
.36

>  <HBA_LIPINSKI>
7

>  <HBD_LIPINSKI>
3

>  <NUM_LIPINSKI_RO5_VIOLATIONS>
0

>  <MW_MONOISOTOPIC>
314.0427

>  <MOLECULAR_SPECIES>
NEUTRAL

>  <FULL_MOLFORMULA>
C16H10O7

$$$$

  CDK    9/16/09,9:20

 45 48  0  0  0  0  0  0  0  0999 V2000
   -0.3274  -16.1256    0.0000 N   0  0  0  0  0  0  0  0  0  0  0  0
   -1.0022  -15.5095    0.0000 C   0  0  0  0  0  0  0  0  0  0  0  0
   -0.2223  -14.4867    0.0000 O   0  0  0  0  0  0  0  0  0  0  0  0
   -0.9708  -14.8054    0.0000 C   0  0  0  0  0  0  0  0  0  0  0  0
   -1.7192  -15.7967    0.0000 C   0  0  0  0  0  0  0  0  0  0  0  0
   -2.3483  -14.6679    0.0000 C   0  0  0  0  0  0  0  0  0  0  0  0
   -2.2483  -15.4781    0.0000 C   0  0  0  0  0  0  0  0  0  0  0  0
   -3.1584  -14.5028    0.0000 N   0  0  0  0  0  0  0  0  0  0  0  0
   -3.0020  -15.8311    0.0000 C   0  0  0  0  0  0  0  0  0  0  0  0
   -3.5617  -15.2240    0.0000 C   0  0  0  0  0  0  0  0  0  0  0  0
   -4.3663  -15.4032    0.0000 C   0  0  0  0  0  0  0  0  0  0  0  0
   -4.6153  -16.1937    0.0000 C   0  0  0  0  0  0  0  0  0  0  0  0
   -4.0555  -16.8009    0.0000 C   0  0  0  0  0  0  0  0  0  0  0  0
   -3.2508  -16.6177    0.0000 C   0  0  0  0  0  0  0  0  0  0  0  0
   -1.5312  -14.2361    0.0000 N   0  0  0  0  0  0  0  0  0  0  0  0
   -1.5312  -13.4068    0.0000 C   0  0  0  0  0  0  0  0  0  0  0  0
   -0.8141  -12.1650    0.0000 O   0  0  0  0  0  0  0  0  0  0  0  0
   -2.2483  -12.9943    0.0000 C   0  0  0  0  0  0  0  0  0  0  0  0
   -0.8141  -12.9943    0.0000 C   0  0  0  0  0  0  0  0  0  0  0  0
   -0.0970  -13.4068    0.0000 N   0  0  0  0  0  0  0  0  0  0  0  0
    0.6201  -12.9943    0.0000 C   0  0  0  0  0  0  0  0  0  0  0  0
    1.3374  -14.2361    0.0000 O   0  0  0  0  0  0  0  0  0  0  0  0
    1.3374  -13.4068    0.0000 C   0  0  0  0  0  0  0  0  0  0  0  0
    2.0544  -12.9943    0.0000 N   0  0  0  0  0  0  0  0  0  0  0  0
    2.8511  -13.3497    0.0000 C   0  0  0  0  0  0  0  0  0  0  0  0
    2.1566  -14.2987    0.0000 O   0  0  0  0  0  0  0  0  0  0  0  0
    2.8511  -14.0326    0.0000 C   0  0  0  0  0  0  0  0  0  0  0  0
    3.4555  -12.8319    0.0000 C   0  0  0  0  0  0  0  0  0  0  0  0
    4.2881  -13.1112    0.0000 C   0  0  0  0  0  0  0  0  0  0  0  0
    3.6067  -11.9623    0.0000 C   0  0  0  0  0  0  0  0  0  0  0  0
    3.3916  -14.5278    0.0000 N   0  0  0  0  0  0  0  0  0  0  0  0
    1.8924  -14.8876    0.0000 O   0  0  0  0  0  0  0  0  0  0  0  0
    2.2778  -15.4481    0.0000 C   0  0  0  0  0  0  0  0  0  0  0  0
    3.6618  -15.9574    0.0000 C   0  0  0  0  0  0  0  0  0  0  0  0
    4.2799  -14.8280    0.0000 C   0  0  0  0  0  0  0  0  0  0  0  0
    4.4685  -15.4994    0.0000 C   0  0  0  0  0  0  0  0  0  0  0  0
    1.9207  -16.3604    0.0000 N   0  0  0  0  0  0  0  0  0  0  0  0
    1.1048  -16.4523    0.0000 C   0  0  0  0  0  0  0  0  0  0  0  0
    0.5228  -15.2493    0.0000 O   0  0  0  0  0  0  0  0  0  0  0  0
    0.5239  -16.0340    0.0000 C   0  0  0  0  0  0  0  0  0  0  0  0
    1.0433  -17.1021    0.0000 C   0  0  0  0  0  0  0  0  0  0  0  0
    1.4884  -17.6326    0.0000 C   0  0  0  0  0  0  0  0  0  0  0  0
    0.3567  -17.3536    0.0000 C   0  0  0  0  0  0  0  0  0  0  0  0
    3.0388  -15.2932    0.0000 C   0  0  0  0  0  0  0  0  0  0  0  0
    2.8252  -16.0900    0.0000 H   0  0  0  0  0  0  0  0  0  0  0  0
  4 15  1  0  0  0  0 
 19 20  1  0  0  0  0 
 23 24  1  0  0  0  0 
 27 31  1  0  0  0  0 
 33 37  1  0  0  0  0 
  1  2  1  0  0  0  0 
  2  4  1  0  0  0  0 
  4  3  2  0  0  0  0 
  2  5  1  1  0  0  0 
  5  7  1  0  0  0  0 
  6  7  2  0  0  0  0 
  7  9  1  0  0  0  0 
  8  6  1  0  0  0  0 
 10  8  1  0  0  0  0 
  9 10  2  0  0  0  0 
 10 11  1  0  0  0  0 
 11 12  2  0  0  0  0 
 12 13  1  0  0  0  0 
 13 14  2  0  0  0  0 
 14  9  1  0  0  0  0 
 15 16  1  0  0  0  0 
 16 19  1  0  0  0  0 
 19 17  2  0  0  0  0 
 16 18  1  1  0  0  0 
 20 21  1  0  0  0  0 
 21 23  1  0  0  0  0 
 23 22  2  0  0  0  0 
 24 25  1  0  0  0  0 
 25 27  1  0  0  0  0 
 27 26  2  0  0  0  0 
 25 28  1  1  0  0  0 
 28 29  1  0  0  0  0 
 28 30  1  0  0  0  0 
 31 44  1  0  0  0  0 
 44 33  1  0  0  0  0 
 33 32  2  0  0  0  0 
 44 34  1  0  0  0  0 
 35 36  1  0  0  0  0 
 36 34  1  0  0  0  0 
 35 31  1  0  0  0  0 
 38 37  1  0  0  0  0 
 38 40  1  0  0  0  0 
 40 39  2  0  0  0  0 
 38 41  1  1  0  0  0 
 41 42  1  0  0  0  0 
 41 43  1  0  0  0  0 
  1 40  1  0  0  0  0 
 44 45  1  6  0  0  0 
M  END
>  <MOLREGNO>
358093

>  <CHEMBLID>
CHEMBL378333

>  <SYNONYMS>
SEGETALIN A

>  <MAX_PHASE>
0

>  <MOLWEIGHT>
609.72

>  <ALOGP>
.63

>  <PSA>
181.6

>  <HBA>
6

>  <HBD>
6

>  <RO5>
2

>  <RTB>
4

>  <RO3>
N

>  <ACD_MOST_APKA>
13.3

>  <ACD_MOST_BPKA>


>  <ACD_LOGP>
.23

>  <ACD_LOGD>
.23

>  <AROMATIC_RINGS>
2

>  <HEAVY_ATOMS>
44

>  <QED_WEIGHTED>
.3

>  <HBA_LIPINSKI>
13

>  <HBD_LIPINSKI>
6

>  <NUM_LIPINSKI_RO5_VIOLATIONS>
2

>  <MW_MONOISOTOPIC>
609.3275

>  <MOLECULAR_SPECIES>
NEUTRAL

>  <FULL_MOLFORMULA>
C31H43N7O6

$$$$

  CDK    9/16/09,9:20

 35 37  0  0  0  0  0  0  0  0999 V2000
    7.1987  -12.3460    0.0000 C   0  0  0  0  0  0  0  0  0  0  0  0
    7.9947  -12.5626    0.0000 C   0  0  0  0  0  0  0  0  0  0  0  0
    8.2063  -13.3655    0.0000 C   0  0  0  0  0  0  0  0  0  0  0  0
    7.6175  -13.9432    0.0000 C   0  0  0  0  0  0  0  0  0  0  0  0
    6.8214  -13.7266    0.0000 C   0  0  0  0  0  0  0  0  0  0  0  0
    6.6099  -12.9280    0.0000 C   0  0  0  0  0  0  0  0  0  0  0  0
    8.9397  -13.7421    0.0000 C   0  0  0  0  0  0  0  0  0  0  0  0
    8.8071  -14.5537    0.0000 C   0  0  0  0  0  0  0  0  0  0  0  0
    7.9896  -14.6809    0.0000 N   0  0  0  0  0  0  0  0  0  0  0  0
    9.6773  -13.3699    0.0000 C   0  0  0  0  0  0  0  0  0  0  0  0
   10.3688  -13.8196    0.0000 C   0  0  0  0  0  0  0  0  0  0  0  0
   11.1066  -13.4474    0.0000 C   0  0  0  0  0  0  0  0  0  0  0  0
   11.1529  -12.6255    0.0000 N   0  0  0  0  0  0  0  0  0  0  0  0
   11.7980  -13.9014    0.0000 O   0  0  0  0  0  0  0  0  0  0  0  0
   11.8924  -12.2613    0.0000 C   0  0  0  0  0  0  0  0  0  0  0  0
   11.9480  -11.4360    0.0000 C   0  0  0  0  0  0  0  0  0  0  0  0
   12.5764  -12.7181    0.0000 C   0  0  0  0  0  0  0  0  0  0  0  0
   12.5249  -13.5435    0.0000 N   0  0  0  0  0  0  0  0  0  0  0  0
   13.3202  -12.3540    0.0000 O   0  0  0  0  0  0  0  0  0  0  0  0
   13.2013  -14.0135    0.0000 C   0  0  0  0  0  0  0  0  0  0  0  0
   13.1332  -14.8372    0.0000 C   0  0  0  0  0  0  0  0  0  0  0  0
   13.8139  -15.3113    0.0000 N   0  0  0  0  0  0  0  0  0  0  0  0
   12.3846  -15.1910    0.0000 O   0  0  0  0  0  0  0  0  0  0  0  0
   13.8139  -16.1353    0.0000 C   0  0  0  0  0  0  0  0  0  0  0  0
   14.5259  -16.5493    0.0000 C   0  0  0  0  0  0  0  0  0  0  0  0
   14.5259  -17.3732    0.0000 C   0  0  0  0  0  0  0  0  0  0  0  0
   15.2423  -16.1353    0.0000 C   0  0  0  0  0  0  0  0  0  0  0  0
   13.0975  -16.5493    0.0000 C   0  0  0  0  0  0  0  0  0  0  0  0
   12.3812  -16.1353    0.0000 N   0  0  0  0  0  0  0  0  0  0  0  0
   13.0975  -17.3732    0.0000 O   0  0  0  0  0  0  0  0  0  0  0  0
   11.6648  -16.5493    0.0000 C   0  0  0  0  0  0  0  0  0  0  0  0
   10.9527  -16.1353    0.0000 C   0  0  0  0  0  0  0  0  0  0  0  0
   11.6648  -17.3732    0.0000 C   0  0  0  0  0  0  0  0  0  0  0  0
   10.2363  -16.5493    0.0000 O   0  0  0  0  0  0  0  0  0  0  0  0
   10.9527  -15.3113    0.0000 N   0  0  0  0  0  0  0  0  0  0  0  0
  1  2  2  0  0  0  0 
  2  3  1  0  0  0  0 
  3  4  2  0  0  0  0 
  4  5  1  0  0  0  0 
  5  6  2  0  0  0  0 
  6  1  1  0  0  0  0 
  3  7  1  0  0  0  0 
  7  8  2  0  0  0  0 
  8  9  1  0  0  0  0 
  9  4  1  0  0  0  0 
  7 10  1  0  0  0  0 
 11 10  1  1  0  0  0 
 11 12  1  0  0  0  0 
 12 13  1  0  0  0  0 
 12 14  2  0  0  0  0 
 13 15  1  0  0  0  0 
 15 16  1  1  0  0  0 
 15 17  1  0  0  0  0 
 17 18  1  0  0  0  0 
 17 19  2  0  0  0  0 
 18 20  1  0  0  0  0 
 20 21  1  0  0  0  0 
 21 22  1  0  0  0  0 
 21 23  2  0  0  0  0 
 22 24  1  0  0  0  0 
 24 25  1  1  0  0  0 
 25 26  1  0  0  0  0 
 25 27  1  0  0  0  0 
 24 28  1  0  0  0  0 
 28 29  1  0  0  0  0 
 28 30  2  0  0  0  0 
 29 31  1  0  0  0  0 
 31 32  1  0  0  0  0 
 31 33  1  1  0  0  0 
 32 34  2  0  0  0  0 
 32 35  1  0  0  0  0 
 11 35  1  0  0  0  0 
M  END
>  <MOLREGNO>
358224

>  <CHEMBLID>
CHEMBL386632

>  <SYNONYMS>
SEGETALIN B

>  <MAX_PHASE>
0

>  <MOLWEIGHT>
484.55

>  <ALOGP>
-.07

>  <PSA>
161.29

>  <HBA>
5

>  <HBD>
6

>  <RO5>
1

>  <RTB>
3

>  <RO3>
N

>  <ACD_MOST_APKA>
13.35

>  <ACD_MOST_BPKA>


>  <ACD_LOGP>
-1.14

>  <ACD_LOGD>
-1.14

>  <AROMATIC_RINGS>
2

>  <HEAVY_ATOMS>
35

>  <QED_WEIGHTED>
.36

>  <HBA_LIPINSKI>
11

>  <HBD_LIPINSKI>
6

>  <NUM_LIPINSKI_RO5_VIOLATIONS>
2

>  <MW_MONOISOTOPIC>
484.2434

>  <MOLECULAR_SPECIES>
NEUTRAL

>  <FULL_MOLFORMULA>
C24H32N6O5

$$$$

  CDK    9/16/09,9:20

 29 33  0  0  0  0  0  0  0  0999 V2000
    5.3958    0.8333    0.0000 C   0  0  0  0  0  0  0  0  0  0  0  0
    5.3958    0.0083    0.0000 C   0  0  0  0  0  0  0  0  0  0  0  0
    6.1079   -0.4000    0.0000 C   0  0  0  0  0  0  0  0  0  0  0  0
    6.1079    1.2500    0.0000 C   0  0  0  0  0  0  0  0  0  0  0  0
    6.8199    0.8333    0.0000 C   0  0  0  0  0  0  0  0  0  0  0  0
    6.8164    0.0083    0.0000 C   0  0  0  0  0  0  0  0  0  0  0  0
    7.5251   -0.4049    0.0000 C   0  0  0  0  0  0  0  0  0  0  0  0
    8.2419    0.0023    0.0000 C   0  0  0  0  0  0  0  0  0  0  0  0
    7.5321    1.2451    0.0000 C   0  0  0  0  0  0  0  0  0  0  0  0
    8.2455    0.8224    0.0000 C   0  0  0  0  0  0  0  0  0  0  0  0
    8.9642    1.2266    0.0000 C   0  0  0  0  0  0  0  0  0  0  0  0
    8.9758    2.0551    0.0000 C   0  0  0  0  0  0  0  0  0  0  0  0
    8.2625    2.4777    0.0000 C   0  0  0  0  0  0  0  0  0  0  0  0
    7.5375    2.0719    0.0000 C   0  0  0  0  0  0  0  0  0  0  0  0
    8.9542    0.4125    0.0000 C   0  0  0  0  0  0  0  0  0  0  0  0
    9.6875    1.6458    0.0000 C   0  0  0  0  0  0  0  0  0  0  0  0
   10.5125    1.6458    0.0000 C   0  0  0  0  0  0  0  0  0  0  0  0
    9.6667    0.0000    0.0000 O   0  0  0  0  0  0  0  0  0  0  0  0
    9.6875    2.4750    0.0000 H   0  0  0  0  0  0  0  0  0  0  0  0
    8.2417    1.6625    0.0000 H   0  0  0  0  0  0  0  0  0  0  0  0
    8.9541   -0.4142    0.0000 O   0  0  0  0  0  0  0  0  0  0  0  0
    7.5205   -1.2299    0.0000 O   0  0  0  0  0  0  0  0  0  0  0  0
    5.6875   -1.1125    0.0000 C   0  0  0  0  0  0  0  0  0  0  0  0
    6.5125   -1.1125    0.0000 C   0  0  0  0  0  0  0  0  0  0  0  0
    6.8083   -0.8125    0.0000 H   0  0  0  0  0  0  0  0  0  0  0  0
    6.8125    1.6583    0.0000 C   0  0  0  0  0  0  0  0  0  0  0  0
    7.6542    0.5917    0.0000 O   0  0  0  0  0  0  0  0  0  0  0  0
    6.1079    2.0750    0.0000 O   0  0  0  0  0  0  0  0  0  0  0  0
    9.6750    0.8167    0.0000 O   0  0  0  0  0  0  0  0  0  0  0  0
 12 13  1  0  0  0  0 
 13 14  1  0  0  0  0 
  2  3  1  0  0  0  0 
 10 15  1  1  0  0  0 
  5  9  1  0  0  0  0 
 12 16  1  0  0  0  0 
 16 15  1  0  0  0  0 
  6  7  1  0  0  0  0 
 16 17  2  0  0  0  0 
  7  8  1  0  0  0  0 
 15 18  2  0  0  0  0 
  8 10  1  0  0  0  0 
 12 19  1  6  0  0  0 
  9 10  1  0  0  0  0 
  9 20  1  1  0  0  0 
  3  6  1  0  0  0  0 
  8 21  1  1  0  0  0 
  5  4  1  0  0  0  0 
  7 22  1  1  0  0  0 
  5  6  1  0  0  0  0 
  3 23  1  0  0  0  0 
  3 24  1  0  0  0  0 
  1  2  1  0  0  0  0 
  6 25  1  1  0  0  0 
  1  4  1  0  0  0  0 
  5 26  1  6  0  0  0 
  9 14  1  0  0  0  0 
  8 27  1  0  0  0  0 
 26 27  1  0  0  0  0 
 10 11  1  0  0  0  0 
  4 28  1  6  0  0  0 
 11 12  1  0  0  0  0 
 11 29  1  1  0  0  0 
M  END
>  <MOLREGNO>
444056

>  <CHEMBLID>
CHEMBL454570

>  <SYNONYMS>
Ent-Oridonin | Oridonin

>  <MAX_PHASE>
0

>  <MOLWEIGHT>
364.43

>  <ALOGP>
.2

>  <PSA>
107.22

>  <HBA>
6

>  <HBD>
4

>  <RO5>
0

>  <RTB>
0

>  <RO3>
N

>  <ACD_MOST_APKA>
10.97

>  <ACD_MOST_BPKA>


>  <ACD_LOGP>
1.36

>  <ACD_LOGD>
1.36

>  <AROMATIC_RINGS>
0

>  <HEAVY_ATOMS>
26

>  <QED_WEIGHTED>
.46

>  <HBA_LIPINSKI>
6

>  <HBD_LIPINSKI>
4

>  <NUM_LIPINSKI_RO5_VIOLATIONS>
0

>  <MW_MONOISOTOPIC>
364.1886

>  <MOLECULAR_SPECIES>
NEUTRAL

>  <FULL_MOLFORMULA>
C20H28O6

$$$$

  SciTegic11201309402D

 32 36  0  0  0  0            999 V2000
    2.0730    0.2062    0.0000 O   0  0
    1.8181   -0.5784    0.0000 C   0  0
    2.3030   -1.2459    0.0000 O   0  0
    1.0335   -0.8334    0.0000 C   0  0  1  0  0  0
    1.0335   -1.6584    0.0000 C   0  0  2  0  0  0
    1.8181   -1.9133    0.0000 C   0  0
    0.3190   -0.4209    0.0000 C   0  0  1  0  0  0
   -0.3955   -0.8334    0.0000 C   0  0
   -0.3955   -1.6584    0.0000 C   0  0
    0.3190   -2.0709    0.0000 C   0  0  2  0  0  0
    0.3190   -2.8959    0.0000 O   0  0
   -1.1099   -2.0709    0.0000 C   0  0
   -1.8244   -1.6584    0.0000 C   0  0
   -1.8244   -0.8334    0.0000 C   0  0
   -1.1099   -0.4209    0.0000 C   0  0
   -2.6090   -1.9133    0.0000 O   0  0
   -3.0939   -1.2459    0.0000 C   0  0
   -2.6090   -0.5784    0.0000 O   0  0
    0.3190    0.4041    0.0000 C   0  0
   -0.3955    0.8166    0.0000 C   0  0
   -0.3955    1.6416    0.0000 C   0  0
   -1.1099    2.0541    0.0000 O   0  0
   -1.1099    2.8791    0.0000 C   0  0
    0.3190    2.0541    0.0000 C   0  0
    0.3190    2.8791    0.0000 O   0  0
   -0.3955    3.2916    0.0000 C   0  0
    1.0335    1.6416    0.0000 C   0  0
    1.0335    0.8166    0.0000 C   0  0
    1.7480    2.0541    0.0000 O   0  0
    2.4624    1.6416    0.0000 C   0  0
    1.1380   -2.6529    0.0000 H   0  0
    1.1380    0.1611    0.0000 H   0  0
  2  1  2  0
  2  3  1  0
  4  2  1  0
  6  3  1  0
  4  5  1  0
  4  7  1  0
  5  6  1  0
 10  5  1  0
  7  8  1  0
  7 19  1  1
  8  9  1  0
 15  8  2  0
  9 10  1  0
  9 12  2  0
 10 11  1  1
 13 12  1  0
 13 14  2  0
 13 16  1  0
 14 15  1  0
 14 18  1  0
 17 16  1  0
 17 18  1  0
 19 20  1  0
 19 28  2  0
 20 21  2  0
 21 22  1  0
 21 24  1  0
 23 22  1  0
 24 25  1  0
 24 27  2  0
 26 25  1  0
 27 28  1  0
 27 29  1  0
 30 29  1  0
  5 31  1  1
  4 32  1  6
M  END
>  <MOLREGNO>
4775

>  <CHEMBLID>
CHEMBL61

>  <SYNONYMS>
Podophyllotoxin | PODOFILOX | CONDYLOX

>  <MAX_PHASE>
4

>  <MOLWEIGHT>
414.41

>  <ALOGP>
2.11

>  <PSA>
92.68

>  <HBA>
8

>  <HBD>
1

>  <RO5>
0

>  <RTB>
4

>  <RO3>
N

>  <ACD_MOST_APKA>
13.26

>  <ACD_MOST_BPKA>


>  <ACD_LOGP>
2.35

>  <ACD_LOGD>
2.35

>  <AROMATIC_RINGS>
2

>  <HEAVY_ATOMS>
30

>  <QED_WEIGHTED>
.76

>  <HBA_LIPINSKI>
8

>  <HBD_LIPINSKI>
1

>  <NUM_LIPINSKI_RO5_VIOLATIONS>
0

>  <MW_MONOISOTOPIC>
414.1315

>  <MOLECULAR_SPECIES>
NEUTRAL

>  <FULL_MOLFORMULA>
C22H22O8

$$$$

  CDK    9/16/09,9:20

 32 36  0  0  0  0  0  0  0  0999 V2000
    5.0223    1.8116    0.0000 C   0  0  0  0  0  0  0  0  0  0  0  0
    5.0205    3.4624    0.0000 C   0  0  0  0  0  0  0  0  0  0  0  0
    4.3084    2.2239    0.0000 C   0  0  0  0  0  0  0  0  0  0  0  0
    4.3050    3.0517    0.0000 C   0  0  0  0  0  0  0  0  0  0  0  0
    3.5167    3.3044    0.0000 O   0  0  0  0  0  0  0  0  0  0  0  0
    3.0328    2.6326    0.0000 C   0  0  0  0  0  0  0  0  0  0  0  0
    3.5222    1.9650    0.0000 O   0  0  0  0  0  0  0  0  0  0  0  0
    5.7350    3.0538    0.0000 C   0  0  0  0  0  0  0  0  0  0  0  0
    5.7338    2.2265    0.0000 C   0  0  0  0  0  0  0  0  0  0  0  0
    6.4458    1.8140    0.0000 C   0  0  0  0  0  0  0  0  0  0  0  0
    6.4481    3.4688    0.0000 C   0  0  0  0  0  0  0  0  0  0  0  0
    7.1647    3.0518    0.0000 C   0  0  0  0  0  0  0  0  0  0  0  0
    7.1655    2.2268    0.0000 C   0  0  0  0  0  0  0  0  0  0  0  0
    7.9504    1.9725    0.0000 C   0  0  0  0  0  0  0  0  0  0  0  0
    8.4348    2.6405    0.0000 O   0  0  0  0  0  0  0  0  0  0  0  0
    7.9491    3.3075    0.0000 C   0  0  0  0  0  0  0  0  0  0  0  0
    8.2057    1.1891    0.0000 O   0  0  0  0  0  0  0  0  0  0  0  0
    6.4423    0.9936    0.0000 C   0  0  0  0  0  0  0  0  0  0  0  0
    5.7263    0.5838    0.0000 C   0  0  0  0  0  0  0  0  0  0  0  0
    5.7242   -0.2393    0.0000 C   0  0  0  0  0  0  0  0  0  0  0  0
    6.4373   -0.6536    0.0000 C   0  0  0  0  0  0  0  0  0  0  0  0
    7.1541   -0.2388    0.0000 C   0  0  0  0  0  0  0  0  0  0  0  0
    7.1527    0.5830    0.0000 C   0  0  0  0  0  0  0  0  0  0  0  0
    7.1573    3.8782    0.0000 H   0  0  0  0  0  0  0  0  0  0  0  0
    7.8683   -0.6497    0.0000 O   0  0  0  0  0  0  0  0  0  0  0  0
    7.8694   -1.4737    0.0000 C   0  0  0  0  0  0  0  0  0  0  0  0
    6.4366   -1.4776    0.0000 O   0  0  0  0  0  0  0  0  0  0  0  0
    5.7228   -1.8889    0.0000 C   0  0  0  0  0  0  0  0  0  0  0  0
    5.0095   -0.6494    0.0000 O   0  0  0  0  0  0  0  0  0  0  0  0
    5.0073   -1.4734    0.0000 C   0  0  0  0  0  0  0  0  0  0  0  0
    7.1573    1.4065    0.0000 H   0  0  0  0  0  0  0  0  0  0  0  0
    6.4481    4.2960    0.0000 O   0  0  0  0  0  0  0  0  0  0  0  0
 13 14  1  0  0  0  0 
 14 15  1  0  0  0  0 
 15 16  1  0  0  0  0 
 12 16  1  0  0  0  0 
  7  3  1  0  0  0  0 
 14 17  2  0  0  0  0 
  8  9  1  0  0  0  0 
  3  4  2  0  0  0  0 
 18 19  2  0  0  0  0 
  3  1  1  0  0  0  0 
 19 20  1  0  0  0  0 
  1  9  2  0  0  0  0 
 20 21  2  0  0  0  0 
 21 22  1  0  0  0  0 
  8 11  1  0  0  0  0 
 22 23  2  0  0  0  0 
 23 18  1  0  0  0  0 
 10 18  1  6  0  0  0 
  9 10  1  0  0  0  0 
 12 24  1  6  0  0  0 
 10 13  1  0  0  0  0 
 22 25  1  0  0  0  0 
 12 11  1  0  0  0  0 
 25 26  1  0  0  0  0 
 12 13  1  0  0  0  0 
 21 27  1  0  0  0  0 
  8  2  2  0  0  0  0 
 27 28  1  0  0  0  0 
  2  4  1  0  0  0  0 
 20 29  1  0  0  0  0 
  4  5  1  0  0  0  0 
 29 30  1  0  0  0  0 
  5  6  1  0  0  0  0 
 13 31  1  6  0  0  0 
  6  7  1  0  0  0  0 
 11 32  1  6  0  0  0 
M  END
>  <MOLREGNO>
30847

>  <CHEMBLID>
CHEMBL283120

>  <SYNONYMS>
Picropodophyllin | Picropodophyllotoxin | AXL-1717

>  <MAX_PHASE>
2

>  <MOLWEIGHT>
414.41

>  <ALOGP>
2.11

>  <PSA>
92.68

>  <HBA>
8

>  <HBD>
1

>  <RO5>
0

>  <RTB>
4

>  <RO3>
N

>  <ACD_MOST_APKA>
13.26

>  <ACD_MOST_BPKA>


>  <ACD_LOGP>
2.35

>  <ACD_LOGD>
2.35

>  <AROMATIC_RINGS>
2

>  <HEAVY_ATOMS>
30

>  <QED_WEIGHTED>
.76

>  <HBA_LIPINSKI>
8

>  <HBD_LIPINSKI>
1

>  <NUM_LIPINSKI_RO5_VIOLATIONS>
0

>  <MW_MONOISOTOPIC>
414.1315

>  <MOLECULAR_SPECIES>
NEUTRAL

>  <FULL_MOLFORMULA>
C22H22O8

$$$$

  SciTegic01161211212D

 12 12  0  0  0  0            999 V2000
    3.9940    1.3374    0.0000 C   0  0
    3.9928    0.5101    0.0000 C   0  0
    4.7076    0.0973    0.0000 C   0  0
    5.4240    0.5105    0.0000 C   0  0
    5.4211    1.3411    0.0000 C   0  0
    4.7058    1.7501    0.0000 C   0  0
    6.1340    1.7562    0.0000 C   0  0
    6.8499    1.3465    0.0000 C   0  0
    7.5627    1.7615    0.0000 C   0  0
    3.2781    0.0982    0.0000 O   0  0
    3.2795    1.7497    0.0000 O   0  0
    3.2793    2.5746    0.0000 C   0  0
  6  1  1  0
  1  2  2  0
  5  7  1  0
  3  4  2  0
  7  8  1  0
  8  9  2  0
  4  5  1  0
  2 10  1  0
  2  3  1  0
  1 11  1  0
  5  6  2  0
 11 12  1  0
M  END
>  <MOLREGNO>
62815

>  <CHEMBLID>
CHEMBL42710

>  <SYNONYMS>
EUGENOL

>  <MAX_PHASE>
0

>  <MOLWEIGHT>
164.2

>  <ALOGP>
2.58

>  <PSA>
29.46

>  <HBA>
2

>  <HBD>
1

>  <RO5>
0

>  <RTB>
3

>  <RO3>
Y

>  <ACD_MOST_APKA>
10.29

>  <ACD_MOST_BPKA>


>  <ACD_LOGP>
2.4

>  <ACD_LOGD>
2.4

>  <AROMATIC_RINGS>
1

>  <HEAVY_ATOMS>
12

>  <QED_WEIGHTED>
.7

>  <HBA_LIPINSKI>
2

>  <HBD_LIPINSKI>
1

>  <NUM_LIPINSKI_RO5_VIOLATIONS>
0

>  <MW_MONOISOTOPIC>
164.0837

>  <MOLECULAR_SPECIES>
NEUTRAL

>  <FULL_MOLFORMULA>
C10H12O2

$$$$

  CDK    5/12/10,14:52
 
 26 27  0  0  0  0  0  0  0  0999 V2000
    1.7862   -0.4125    0.0000 O   0  0  0  0  0  0  0  0  0  0  0  0
    2.5006   -0.8250    0.0000 C   0  0  0  0  0  0  0  0  0  0  0  0
    3.2151   -0.4125    0.0000 C   0  0  0  0  0  0  0  0  0  0  0  0
    3.2151    0.4125    0.0000 C   0  0  0  0  0  0  0  0  0  0  0  0
    2.5006    0.8250    0.0000 C   0  0  0  0  0  0  0  0  0  0  0  0
    1.7862    0.4125    0.0000 C   0  0  0  0  0  0  0  0  0  0  0  0
    3.9296   -0.8250    0.0000 O   0  0  0  0  0  0  0  0  0  0  0  0
    3.9296    0.8250    0.0000 O   0  0  0  0  0  0  0  0  0  0  0  0
    2.5006    1.6500    0.0000 O   0  0  0  0  0  0  0  0  0  0  0  0
    1.0717    0.8250    0.0000 O   0  0  0  0  0  0  0  0  0  0  0  0
    0.3572    0.4125    0.0000 C   0  0  0  0  0  0  0  0  0  0  0  0
    0.3572   -0.4125    0.0000 C   0  0  0  0  0  0  0  0  0  0  0  0
   -0.3572   -0.8250    0.0000 C   0  0  0  0  0  0  0  0  0  0  0  0
   -1.0717   -0.4125    0.0000 C   0  0  0  0  0  0  0  0  0  0  0  0
   -1.0717    0.4125    0.0000 C   0  0  0  0  0  0  0  0  0  0  0  0
   -0.3572    0.8250    0.0000 C   0  0  0  0  0  0  0  0  0  0  0  0
   -0.3572    1.6500    0.0000 O   0  0  0  0  0  0  0  0  0  0  0  0
   -1.0717    2.0625    0.0000 C   0  0  0  0  0  0  0  0  0  0  0  0
    1.0717   -0.8250    0.0000 O   0  0  0  0  0  0  0  0  0  0  0  0
    1.0717   -1.6500    0.0000 C   0  0  0  0  0  0  0  0  0  0  0  0
   -1.7862   -0.8250    0.0000 C   0  0  0  0  0  0  0  0  0  0  0  0
   -2.5006   -0.4125    0.0000 C   0  0  0  0  0  0  0  0  0  0  0  0
   -3.2151   -0.8250    0.0000 C   0  0  0  0  0  0  0  0  0  0  0  0
   -3.9296   -0.4125    0.0000 O   0  0  0  0  0  0  0  0  0  0  0  0
    2.5006   -1.6500    0.0000 C   0  0  0  0  0  0  0  0  0  0  0  0
    3.2151   -2.0625    0.0000 O   0  0  0  0  0  0  0  0  0  0  0  0
  1  2  1  0  0  0  0 
  2  3  1  0  0  0  0 
  3  4  1  0  0  0  0 
  4  5  1  0  0  0  0 
  5  6  1  0  0  0  0 
  1  6  1  0  0  0  0 
  3  7  1  6  0  0  0 
  4  8  1  1  0  0  0 
  5  9  1  6  0  0  0 
 11 12  1  0  0  0  0 
 12 13  2  0  0  0  0 
 13 14  1  0  0  0  0 
 14 15  2  0  0  0  0 
 15 16  1  0  0  0  0 
 11 16  2  0  0  0  0 
 10 11  1  0  0  0  0 
 17 18  1  0  0  0  0 
 16 17  1  0  0  0  0 
 19 20  1  0  0  0  0 
 12 19  1  0  0  0  0 
 21 22  2  0  0  0  0 
 22 23  1  0  0  0  0 
 23 24  1  0  0  0  0 
 14 21  1  0  0  0  0 
  6 10  1  1  0  0  0 
 25 26  1  0  0  0  0 
  2 25  1  1  0  0  0 
M  END
>  <MOLREGNO>
420351

>  <CHEMBLID>
CHEMBL250872

>  <SYNONYMS>
Syringin

>  <MAX_PHASE>
0

>  <MOLWEIGHT>
372.37

>  <ALOGP>
-.51

>  <PSA>
138.07

>  <HBA>
9

>  <HBD>
5

>  <RO5>
0

>  <RTB>
7

>  <RO3>
N

>  <ACD_MOST_APKA>
12.75

>  <ACD_MOST_BPKA>


>  <ACD_LOGP>
-1.55

>  <ACD_LOGD>
-1.55

>  <AROMATIC_RINGS>
1

>  <HEAVY_ATOMS>
26

>  <QED_WEIGHTED>
.43

>  <HBA_LIPINSKI>
9

>  <HBD_LIPINSKI>
5

>  <NUM_LIPINSKI_RO5_VIOLATIONS>
0

>  <MW_MONOISOTOPIC>
372.142

>  <MOLECULAR_SPECIES>
NEUTRAL

>  <FULL_MOLFORMULA>
C17H24O9

$$$$

  SciTegic02271514372D

 16 16  0  0  0  0            999 V2000
    5.8748   -7.3127    0.0000 C   0  0
    5.2156   -7.7928    0.0000 C   0  0
    4.3984   -7.7928    0.0000 C   0  0
    3.7352   -7.3127    0.0000 C   0  0
    3.4805   -6.5355    0.0000 C   0  0
    3.7352   -5.7582    0.0000 C   0  0
    4.3984   -5.2781    0.0000 C   0  0
    5.2156   -5.2781    0.0000 C   0  0
    5.8748   -5.7582    0.0000 C   0  0
    6.1253   -6.5355    0.0000 C   0  0
    6.5339   -7.7928    0.0000 O   0  0
    7.3511   -5.8305    0.0000 C   0  0
    6.9425   -6.5355    0.0000 C   0  0
    7.3511   -7.2446    0.0000 C   0  0
    4.1438   -4.5009    0.0000 C   0  0
    4.1438   -8.5701    0.0000 C   0  0
  1  2  1  0
  2  3  1  0
  3  4  2  0
  4  5  1  0
  5  6  1  0
  6  7  1  0
  7  8  2  0
  8  9  1  0
  9 10  1  0
  1 10  1  0
  1 11  2  0
 12 13  1  0
 13 14  1  0
 10 13  2  0
  7 15  1  0
  3 16  1  0
M  END
>  <MOLREGNO>
1778543

>  <CHEMBLID>
CHEMBL3309453

>  <SYNONYMS>


>  <MAX_PHASE>
0

>  <MOLWEIGHT>
218.33

>  <ALOGP>
4.47

>  <PSA>
17.07

>  <HBA>
1

>  <HBD>
0

>  <RO5>
0

>  <RTB>
0

>  <RO3>
N

>  <ACD_MOST_APKA>


>  <ACD_MOST_BPKA>


>  <ACD_LOGP>
4.44

>  <ACD_LOGD>
4.44

>  <AROMATIC_RINGS>
0

>  <HEAVY_ATOMS>
16

>  <QED_WEIGHTED>
.43

>  <HBA_LIPINSKI>
1

>  <HBD_LIPINSKI>
0

>  <NUM_LIPINSKI_RO5_VIOLATIONS>
0

>  <MW_MONOISOTOPIC>
218.1671

>  <MOLECULAR_SPECIES>


>  <FULL_MOLFORMULA>
C15H22O

$$$$

  SciTegic09251318272D

 21 23  0  0  0  0            999 V2000
   -1.4661   -0.6724    0.0000 C   0  0
   -2.1806   -1.0849    0.0000 C   0  0
   -2.1806   -1.9099    0.0000 C   0  0
   -1.4661   -2.3224    0.0000 C   0  0
   -0.7516   -1.9099    0.0000 C   0  0
   -0.7516   -1.0849    0.0000 C   0  0
   -0.0372   -0.6724    0.0000 O   0  0
   -0.0372   -2.3224    0.0000 C   0  0
    0.6773   -1.9099    0.0000 C   0  0
    0.6773   -1.0849    0.0000 C   0  0
    1.3918   -0.6724    0.0000 C   0  0
   -0.0372   -3.1474    0.0000 O   0  0
   -2.8951   -0.6724    0.0000 O   0  0
    2.8207   -0.6724    0.0000 C   0  0
    2.1062   -1.0849    0.0000 C   0  0
    1.3918    0.1526    0.0000 C   0  0
    2.1062    0.5651    0.0000 C   0  0
    2.8207    0.1526    0.0000 C   0  0
    3.5352    0.5651    0.0000 O   0  0
    3.5352    1.3901    0.0000 C   0  0
   -1.4661   -3.1474    0.0000 O   0  0
  1  2  2  0
  1  6  1  0
  2  3  1  0
  3  4  2  0
  4  5  1  0
  7  6  1  0
  5  6  2  0
  5  8  1  0
  7 10  1  0
  8  9  1  0
  9 10  2  0
 10 11  1  0
  8 12  2  0
  2 13  1  0
 15 11  2  0
 11 16  1  0
 14 15  1  0
 14 18  2  0
 16 17  2  0
 17 18  1  0
 18 19  1  0
 19 20  1  0
  4 21  1  0
M  END
>  <MOLREGNO>
390246

>  <CHEMBLID>
CHEMBL243664

>  <SYNONYMS>
NSC-76061

>  <MAX_PHASE>
0

>  <MOLWEIGHT>
284.26

>  <ALOGP>
2.64

>  <PSA>
75.99

>  <HBA>
5

>  <HBD>
2

>  <RO5>
0

>  <RTB>
2

>  <RO3>
N

>  <ACD_MOST_APKA>
6.51

>  <ACD_MOST_BPKA>


>  <ACD_LOGP>
2.44

>  <ACD_LOGD>
1.24

>  <AROMATIC_RINGS>
2

>  <HEAVY_ATOMS>
21

>  <QED_WEIGHTED>
.89

>  <HBA_LIPINSKI>
5

>  <HBD_LIPINSKI>
2

>  <NUM_LIPINSKI_RO5_VIOLATIONS>
0

>  <MW_MONOISOTOPIC>
284.0685

>  <MOLECULAR_SPECIES>
NEUTRAL

>  <FULL_MOLFORMULA>
C16H12O5

$$$$

  Mrv0541 04051115152D          

 22 24  0  0  0  0            999 V2000
   -2.6133   -0.7170    0.0000 C   0  0  0  0  0  0  0  0  0  0  0  0
   -1.8989   -1.1295    0.0000 C   0  0  0  0  0  0  0  0  0  0  0  0
   -1.1844   -0.7170    0.0000 C   0  0  0  0  0  0  0  0  0  0  0  0
   -1.1844    0.1080    0.0000 C   0  0  0  0  0  0  0  0  0  0  0  0
   -1.8989    0.5205    0.0000 C   0  0  0  0  0  0  0  0  0  0  0  0
   -2.6133    0.1080    0.0000 C   0  0  0  0  0  0  0  0  0  0  0  0
   -0.4699   -1.1295    0.0000 C   0  0  0  0  0  0  0  0  0  0  0  0
    0.2445   -0.7170    0.0000 C   0  0  1  0  0  0  0  0  0  0  0  0
    0.2445    0.1080    0.0000 C   0  0  1  0  0  0  0  0  0  0  0  0
    0.9590    0.5205    0.0000 C   0  0  0  0  0  0  0  0  0  0  0  0
    0.9590    1.3455    0.0000 C   0  0  0  0  0  0  0  0  0  0  0  0
    1.6735    1.7580    0.0000 C   0  0  0  0  0  0  0  0  0  0  0  0
    2.3880    1.3455    0.0000 C   0  0  0  0  0  0  0  0  0  0  0  0
    2.3880    0.5205    0.0000 C   0  0  0  0  0  0  0  0  0  0  0  0
    1.6735    0.1080    0.0000 C   0  0  0  0  0  0  0  0  0  0  0  0
   -0.4699    0.5205    0.0000 O   0  0  0  0  0  0  0  0  0  0  0  0
   -0.4699   -1.9545    0.0000 O   0  0  0  0  0  0  0  0  0  0  0  0
    3.1024    0.1080    0.0000 O   0  0  0  0  0  0  0  0  0  0  0  0
    3.1024    1.7580    0.0000 O   0  0  0  0  0  0  0  0  0  0  0  0
    0.9590   -1.1295    0.0000 O   0  0  0  0  0  0  0  0  0  0  0  0
   -3.3278    0.5205    0.0000 O   0  0  0  0  0  0  0  0  0  0  0  0
   -1.8989   -1.9545    0.0000 O   0  0  0  0  0  0  0  0  0  0  0  0
  1  2  2  0  0  0  0
  1  6  1  0  0  0  0
  2  3  1  0  0  0  0
  2 22  1  0  0  0  0
  3  4  2  0  0  0  0
  3  7  1  0  0  0  0
  4  5  1  0  0  0  0
  4 16  1  0  0  0  0
  5  6  2  0  0  0  0
  6 21  1  0  0  0  0
  8  7  1  0  0  0  0
  7 17  2  0  0  0  0
  8  9  1  0  0  0  0
  8 20  1  1  0  0  0
  9 10  1  6  0  0  0
  9 16  1  0  0  0  0
 10 11  2  0  0  0  0
 10 15  1  0  0  0  0
 11 12  1  0  0  0  0
 12 13  2  0  0  0  0
 13 14  1  0  0  0  0
 13 19  1  0  0  0  0
 14 15  2  0  0  0  0
 14 18  1  0  0  0  0
M  END
>  <MOLREGNO>
5261

>  <CHEMBLID>
CHEMBL66

>  <SYNONYMS>
(+)-TAXIFOLIN

>  <MAX_PHASE>
0

>  <MOLWEIGHT>
304.25

>  <ALOGP>
1.48

>  <PSA>
127.45

>  <HBA>
7

>  <HBD>
5

>  <RO5>
0

>  <RTB>
1

>  <RO3>
N

>  <ACD_MOST_APKA>
7.4

>  <ACD_MOST_BPKA>


>  <ACD_LOGP>
1.57

>  <ACD_LOGD>
1.07

>  <AROMATIC_RINGS>
2

>  <HEAVY_ATOMS>
22

>  <QED_WEIGHTED>
.51

>  <HBA_LIPINSKI>
7

>  <HBD_LIPINSKI>
5

>  <NUM_LIPINSKI_RO5_VIOLATIONS>
0

>  <MW_MONOISOTOPIC>
304.0583

>  <MOLECULAR_SPECIES>
NEUTRAL

>  <FULL_MOLFORMULA>
C15H12O7

$$$$

  CDK    9/16/09,10:6

 22 24  0  0  0  0  0  0  0  0999 V2000
   -5.2009  -12.2201    0.0000 C   0  0  0  0  0  0  0  0  0  0  0  0
   -5.2021  -13.0464    0.0000 C   0  0  0  0  0  0  0  0  0  0  0  0
   -4.4902  -13.4588    0.0000 C   0  0  0  0  0  0  0  0  0  0  0  0
   -4.4921  -11.8078    0.0000 C   0  0  0  0  0  0  0  0  0  0  0  0
   -3.7750  -12.2160    0.0000 C   0  0  0  0  0  0  0  0  0  0  0  0
   -3.7712  -13.0485    0.0000 C   0  0  0  0  0  0  0  0  0  0  0  0
   -3.0525  -13.4592    0.0000 C   0  0  0  0  0  0  0  0  0  0  0  0
   -2.3329  -13.0421    0.0000 C   0  0  0  0  0  0  0  0  0  0  0  0
   -2.3365  -12.2096    0.0000 C   0  0  0  0  0  0  0  0  0  0  0  0
   -3.0599  -11.7943    0.0000 O   0  0  0  0  0  0  0  0  0  0  0  0
   -3.0500  -14.2830    0.0000 O   0  0  0  0  0  0  0  0  0  0  0  0
   -1.6260  -11.7963    0.0000 C   0  0  0  0  0  0  0  0  0  0  0  0
   -0.9108  -12.2075    0.0000 C   0  0  0  0  0  0  0  0  0  0  0  0
   -0.1994  -11.7939    0.0000 C   0  0  0  0  0  0  0  0  0  0  0  0
   -0.2017  -10.9692    0.0000 C   0  0  0  0  0  0  0  0  0  0  0  0
   -0.9216  -10.5599    0.0000 C   0  0  0  0  0  0  0  0  0  0  0  0
   -1.6302  -10.9759    0.0000 C   0  0  0  0  0  0  0  0  0  0  0  0
   -5.9146  -11.8087    0.0000 O   0  0  0  0  0  0  0  0  0  0  0  0
   -4.4927  -14.2826    0.0000 O   0  0  0  0  0  0  0  0  0  0  0  0
   -0.9273   -9.7361    0.0000 O   0  0  0  0  0  0  0  0  0  0  0  0
    0.5098  -10.5538    0.0000 O   0  0  0  0  0  0  0  0  0  0  0  0
   -1.6181  -13.4518    0.0000 O   0  0  0  0  0  0  0  0  0  0  0  0
  5  6  1  0  0  0  0 
  7 11  2  0  0  0  0 
  2  3  1  0  0  0  0 
 12 13  2  0  0  0  0 
  3  6  2  0  0  0  0 
 13 14  1  0  0  0  0 
  1  2  2  0  0  0  0 
 14 15  2  0  0  0  0 
  5  4  2  0  0  0  0 
 15 16  1  0  0  0  0 
  4  1  1  0  0  0  0 
 16 17  2  0  0  0  0 
 17 12  1  0  0  0  0 
  9 12  1  0  0  0  0 
  5 10  1  0  0  0  0 
  1 18  1  0  0  0  0 
  6  7  1  0  0  0  0 
  3 19  1  0  0  0  0 
  7  8  1  0  0  0  0 
 16 20  1  0  0  0  0 
  8  9  1  0  0  0  0 
 15 21  1  0  0  0  0 
  9 10  1  0  0  0  0 
  8 22  1  0  0  0  0 
M  END
>  <MOLREGNO>
228888

>  <CHEMBLID>
CHEMBL337309

>  <SYNONYMS>
NSC-2801

>  <MAX_PHASE>
0

>  <MOLWEIGHT>
304.25

>  <ALOGP>
1.48

>  <PSA>
127.45

>  <HBA>
7

>  <HBD>
5

>  <RO5>
0

>  <RTB>
1

>  <RO3>
N

>  <ACD_MOST_APKA>
7.4

>  <ACD_MOST_BPKA>


>  <ACD_LOGP>
1.57

>  <ACD_LOGD>
1.07

>  <AROMATIC_RINGS>
2

>  <HEAVY_ATOMS>
22

>  <QED_WEIGHTED>
.51

>  <HBA_LIPINSKI>
7

>  <HBD_LIPINSKI>
5

>  <NUM_LIPINSKI_RO5_VIOLATIONS>
0

>  <MW_MONOISOTOPIC>
304.0583

>  <MOLECULAR_SPECIES>
NEUTRAL

>  <FULL_MOLFORMULA>
C15H12O7

$$$$

  CDK    9/16/09,9:55

 33 35  0  0  0  0  0  0  0  0999 V2000
   12.1275    0.8628    0.0000 C   0  0  0  0  0  0  0  0  0  0  0  0
   11.4107    0.4501    0.0000 C   0  0  0  0  0  0  0  0  0  0  0  0
   11.4106   -0.3751    0.0000 C   0  0  0  0  0  0  0  0  0  0  0  0
   12.1267   -0.7886    0.0000 C   0  0  0  0  0  0  0  0  0  0  0  0
   12.8441   -0.3709    0.0000 C   0  0  0  0  0  0  0  0  0  0  0  0
   12.8407    0.4529    0.0000 C   0  0  0  0  0  0  0  0  0  0  0  0
   13.5535    0.8675    0.0000 C   0  0  0  0  0  0  0  0  0  0  0  0
   14.2691    0.4573    0.0000 C   0  0  0  0  0  0  0  0  0  0  0  0
   14.9873    0.0501    0.0000 N   0  0  0  0  0  0  0  0  0  0  0  0
   13.5510    1.6922    0.0000 O   0  0  0  0  0  0  0  0  0  0  0  0
   14.2639    2.1067    0.0000 C   0  0  0  0  0  0  0  0  0  0  0  0
   14.9785    1.6973    0.0000 O   0  0  0  0  0  0  0  0  0  0  0  0
   15.6894    2.1083    0.0000 C   0  0  0  0  0  0  0  0  0  0  0  0
   15.6911    2.9333    0.0000 C   0  0  0  0  0  0  0  0  0  0  0  0
   14.9757    3.3457    0.0000 C   0  0  0  0  0  0  0  0  0  0  0  0
   14.2587    2.9329    0.0000 C   0  0  0  0  0  0  0  0  0  0  0  0
   16.4033    1.6955    0.0000 C   0  0  0  0  0  0  0  0  0  0  0  0
   17.1177    2.1073    0.0000 O   0  0  0  0  0  0  0  0  0  0  0  0
   17.8317    1.6946    0.0000 C   0  0  0  0  0  0  0  0  0  0  0  0
   17.8262    0.8697    0.0000 O   0  0  0  0  0  0  0  0  0  0  0  0
   18.5360    0.4569    0.0000 C   0  0  0  0  0  0  0  0  0  0  0  0
   19.2530    0.8654    0.0000 C   0  0  0  0  0  0  0  0  0  0  0  0
   19.2555    1.6910    0.0000 C   0  0  0  0  0  0  0  0  0  0  0  0
   18.5411    2.1083    0.0000 C   0  0  0  0  0  0  0  0  0  0  0  0
   18.5324   -0.3677    0.0000 C   0  0  0  0  0  0  0  0  0  0  0  0
   17.8164   -0.7769    0.0000 O   0  0  0  0  0  0  0  0  0  0  0  0
   19.9714    2.1004    0.0000 O   0  0  0  0  0  0  0  0  0  0  0  0
   14.9759    4.1766    0.0000 O   0  0  0  0  0  0  0  0  0  0  0  0
   14.4783    1.3145    0.0000 H   0  0  0  0  0  0  0  0  0  0  0  0
   13.5434    3.3435    0.0000 O   0  0  0  0  0  0  0  0  0  0  0  0
   16.4055    3.3452    0.0000 O   0  0  0  0  0  0  0  0  0  0  0  0
   18.5414    2.9330    0.0000 O   0  0  0  0  0  0  0  0  0  0  0  0
   19.9653    0.4498    0.0000 O   0  0  0  0  0  0  0  0  0  0  0  0
 15 16  1  0  0  0  0 
  7  8  1  0  0  0  0 
 13 17  1  1  0  0  0 
 17 18  1  0  0  0  0 
  8  9  3  0  0  0  0 
 19 18  1  1  0  0  0 
 19 20  1  0  0  0  0 
  4  5  1  0  0  0  0 
  7 10  1  1  0  0  0 
  2  3  1  0  0  0  0 
 10 11  1  0  0  0  0 
 11 12  1  0  0  0  0 
 19 24  1  0  0  0  0 
 20 21  1  0  0  0  0 
 21 22  1  0  0  0  0 
 22 23  1  0  0  0  0 
 23 24  1  0  0  0  0 
  5  6  2  0  0  0  0 
 21 25  1  1  0  0  0 
  6  1  1  0  0  0  0 
 25 26  1  0  0  0  0 
  1  2  2  0  0  0  0 
 23 27  1  1  0  0  0 
  6  7  1  0  0  0  0 
 15 28  1  1  0  0  0 
  3  4  2  0  0  0  0 
 11 29  1  6  0  0  0 
 11 16  1  0  0  0  0 
 16 30  1  6  0  0  0 
 12 13  1  0  0  0  0 
 14 31  1  6  0  0  0 
 13 14  1  0  0  0  0 
 24 32  1  6  0  0  0 
 14 15  1  0  0  0  0 
 22 33  1  6  0  0  0 
M  END
>  <MOLREGNO>
454509

>  <CHEMBLID>
CHEMBL461727

>  <SYNONYMS>
Amygdalin

>  <MAX_PHASE>
0

>  <MOLWEIGHT>
457.43

>  <ALOGP>
-2.4

>  <PSA>
202.32

>  <HBA>
12

>  <HBD>
7

>  <RO5>
2

>  <RTB>
7

>  <RO3>
N

>  <ACD_MOST_APKA>
12.69

>  <ACD_MOST_BPKA>


>  <ACD_LOGP>
-2.24

>  <ACD_LOGD>
-2.24

>  <AROMATIC_RINGS>
1

>  <HEAVY_ATOMS>
32

>  <QED_WEIGHTED>
.23

>  <HBA_LIPINSKI>
12

>  <HBD_LIPINSKI>
7

>  <NUM_LIPINSKI_RO5_VIOLATIONS>
2

>  <MW_MONOISOTOPIC>
457.1584

>  <MOLECULAR_SPECIES>
NEUTRAL

>  <FULL_MOLFORMULA>
C20H27NO11

$$$$

  Mrv0541 04051115152D          

 13 13  0  0  0  0            999 V2000
    2.1942   -2.8797    0.0000 C   0  0  0  0  0  0  0  0  0  0  0  0
    2.9087   -3.2922    0.0000 O   0  0  0  0  0  0  0  0  0  0  0  0
    2.1942   -2.0547    0.0000 C   0  0  0  0  0  0  0  0  0  0  0  0
    1.4797   -1.6422    0.0000 C   0  0  0  0  0  0  0  0  0  0  0  0
    1.4797   -0.8172    0.0000 C   0  0  0  0  0  0  0  0  0  0  0  0
    0.7652   -0.4047    0.0000 C   0  0  0  0  0  0  0  0  0  0  0  0
    0.7652    0.4203    0.0000 C   0  0  0  0  0  0  0  0  0  0  0  0
    1.4797    0.8328    0.0000 C   0  0  0  0  0  0  0  0  0  0  0  0
    2.1942    0.4203    0.0000 C   0  0  0  0  0  0  0  0  0  0  0  0
    2.1942   -0.4047    0.0000 C   0  0  0  0  0  0  0  0  0  0  0  0
    1.4797    1.6578    0.0000 O   0  0  0  0  0  0  0  0  0  0  0  0
    0.0508    0.8328    0.0000 O   0  0  0  0  0  0  0  0  0  0  0  0
    1.4797   -3.2922    0.0000 O   0  0  0  0  0  0  0  0  0  0  0  0
  1  2  2  0  0  0  0
  1  3  1  0  0  0  0
  1 13  1  0  0  0  0
  3  4  2  0  0  0  0
  5  4  1  0  0  0  0
  5  6  2  0  0  0  0
  5 10  1  0  0  0  0
  6  7  1  0  0  0  0
  7  8  2  0  0  0  0
  7 12  1  0  0  0  0
  8  9  1  0  0  0  0
  8 11  1  0  0  0  0
  9 10  2  0  0  0  0
M  END
>  <MOLREGNO>
37812

>  <CHEMBLID>
CHEMBL145

>  <SYNONYMS>
Caffeic acid | trans-Caffeate

>  <MAX_PHASE>
0

>  <MOLWEIGHT>
180.16

>  <ALOGP>
1.44

>  <PSA>
77.76

>  <HBA>
4

>  <HBD>
3

>  <RO5>
0

>  <RTB>
2

>  <RO3>
N

>  <ACD_MOST_APKA>
4.58

>  <ACD_MOST_BPKA>


>  <ACD_LOGP>
.66

>  <ACD_LOGD>
-2.43

>  <AROMATIC_RINGS>
1

>  <HEAVY_ATOMS>
13

>  <QED_WEIGHTED>
.48

>  <HBA_LIPINSKI>
4

>  <HBD_LIPINSKI>
3

>  <NUM_LIPINSKI_RO5_VIOLATIONS>
0

>  <MW_MONOISOTOPIC>
180.0423

>  <MOLECULAR_SPECIES>
ACID

>  <FULL_MOLFORMULA>
C9H8O4

$$$$

  SciTegic01161211232D

 33 36  0  0  0  0            999 V2000
    1.7833  -10.7625    0.0000 C   0  0  2  0  0  0
    1.7833   -9.9375    0.0000 C   0  0  2  0  0  0
    1.0625  -11.1708    0.0000 C   0  0
    0.3583  -10.7500    0.0000 C   0  0
    2.4875  -12.0000    0.0000 C   0  0  2  0  0  0
    1.0750   -9.5208    0.0000 O   0  0
    0.3625   -9.9250    0.0000 C   0  0
    3.2000  -12.4125    0.0000 C   0  0  1  0  0  0
    2.4958  -11.1750    0.0000 O   0  0
    3.1958  -13.2375    0.0000 C   0  0  1  0  0  0
    1.7708  -12.4083    0.0000 O   0  0
   -0.3500  -11.1625    0.0000 C   0  0
    2.4750  -13.6500    0.0000 C   0  0  2  0  0  0
    2.5000   -9.5250    0.0000 C   0  0
    1.7625  -13.2250    0.0000 C   0  0  2  0  0  0
   -0.3500   -9.5125    0.0000 C   0  0
   -1.0667  -10.7500    0.0000 C   0  0
    3.2125   -9.9458    0.0000 C   0  0
    3.9333   -9.5375    0.0000 C   0  0
    1.0625  -11.9958    0.0000 O   0  0
   -1.0667   -9.9250    0.0000 C   0  0
    3.9375   -8.7125    0.0000 C   0  0
    2.5000   -8.7083    0.0000 C   0  0
    3.2125   -8.2875    0.0000 C   0  0
    3.9208  -12.0000    0.0000 O   0  0
    3.9000  -13.6625    0.0000 O   0  0
   -0.3500  -11.9875    0.0000 O   0  0
    2.4625  -14.4750    0.0000 O   0  0
    4.6458   -9.9500    0.0000 O   0  0
   -1.7875   -9.5208    0.0000 O   0  0
    4.6500   -8.3000    0.0000 O   0  0
    1.0500  -13.6375    0.0000 C   0  0
    1.7792  -11.5875    0.0000 H   0  0
  2  1  1  0
  3  1  1  0
  4  3  1  0
  5  9  1  1
  6  2  1  0
  7  4  2  0
  8  5  1  0
  9  1  1  0
 10  8  1  0
 11  5  1  0
 12  4  1  0
 13 15  1  0
  2 14  1  6
 15 11  1  0
 16  7  1  0
 17 12  2  0
 18 14  2  0
 19 18  1  0
 20  3  2  0
 21 16  2  0
 22 24  1  0
 23 14  1  0
 24 23  2  0
  8 25  1  6
 10 26  1  6
 27 12  1  0
 13 28  1  1
 29 19  1  0
 30 21  1  0
 31 22  1  0
 15 32  1  6
  6  7  1  0
 10 13  1  0
 21 17  1  0
 19 22  2  0
  1 33  1  6
M  END
>  <MOLREGNO>
445819

>  <CHEMBLID>
CHEMBL486017

>  <SYNONYMS>
Astilbin

>  <MAX_PHASE>
0

>  <MOLWEIGHT>
450.39

>  <ALOGP>
.62

>  <PSA>
186.37

>  <HBA>
11

>  <HBD>
7

>  <RO5>
2

>  <RTB>
3

>  <RO3>
N

>  <ACD_MOST_APKA>
7.34

>  <ACD_MOST_BPKA>


>  <ACD_LOGP>
1.06

>  <ACD_LOGD>
.52

>  <AROMATIC_RINGS>
2

>  <HEAVY_ATOMS>
32

>  <QED_WEIGHTED>
.33

>  <HBA_LIPINSKI>
11

>  <HBD_LIPINSKI>
7

>  <NUM_LIPINSKI_RO5_VIOLATIONS>
2

>  <MW_MONOISOTOPIC>
450.1162

>  <MOLECULAR_SPECIES>
NEUTRAL

>  <FULL_MOLFORMULA>
C21H22O11

$$$$

  SciTegic07111213592D

 21 23  0  0  0  0            999 V2000
    4.8125   -0.2292    0.0000 C   0  0
    5.5292   -0.6417    0.0000 C   0  0
    6.2417    0.6083    0.0000 C   0  0
    6.2500   -0.2208    0.0000 C   0  0
    4.8042    0.6000    0.0000 C   0  0
    5.5250    1.0208    0.0000 O   0  0
    4.0917   -0.6417    0.0000 C   0  0
    6.9542    1.0208    0.0000 C   0  0
    4.0917    1.0083    0.0000 C   0  0
    3.3792   -0.2292    0.0000 C   0  0
    6.9542    1.8458    0.0000 C   0  0
    7.6625    2.2583    0.0000 C   0  0
    3.3792    0.5958    0.0000 C   0  0
    5.5292   -1.4667    0.0000 O   0  0
    8.3792    1.8500    0.0000 C   0  0
    7.6750    0.6083    0.0000 C   0  0
    8.3875    1.0250    0.0000 C   0  0
    4.0917   -1.4667    0.0000 O   0  0
    7.6542    3.0833    0.0000 O   0  0
    9.0917    2.2667    0.0000 O   0  0
    2.6667    1.0083    0.0000 O   0  0
  2  1  1  0
  3  6  1  0
  4  2  1  0
  5  1  1  0
  6  5  1  0
  7  1  2  0
  8  3  1  0
  9  5  2  0
 10  7  1  0
 11  8  1  0
 12 11  2  0
 13 10  2  0
 14  2  2  0
 15 17  2  0
 16  8  2  0
 17 16  1  0
 18  7  1  0
 19 12  1  0
 20 15  1  0
 21 13  1  0
  4  3  2  0
  9 13  1  0
 12 15  1  0
M  END
>  <MOLREGNO>
47209

>  <CHEMBLID>
CHEMBL151

>  <SYNONYMS>
Digitoflavone | Luteolin | Luteolol | Flacitran | Luteoline

>  <MAX_PHASE>
0

>  <MOLWEIGHT>
286.24

>  <ALOGP>
2.17

>  <PSA>
107.22

>  <HBA>
6

>  <HBD>
4

>  <RO5>
0

>  <RTB>
1

>  <RO3>
N

>  <ACD_MOST_APKA>
6.5

>  <ACD_MOST_BPKA>


>  <ACD_LOGP>
2.7

>  <ACD_LOGD>
1.46

>  <AROMATIC_RINGS>
2

>  <HEAVY_ATOMS>
21

>  <QED_WEIGHTED>
.6

>  <HBA_LIPINSKI>
6

>  <HBD_LIPINSKI>
4

>  <NUM_LIPINSKI_RO5_VIOLATIONS>
0

>  <MW_MONOISOTOPIC>
286.0477

>  <MOLECULAR_SPECIES>
ACID

>  <FULL_MOLFORMULA>
C15H10O6

$$$$

  Mrv0541 04051115152D          

 12 12  0  0  0  0            999 V2000
    1.5919    0.9210    0.0000 O   0  0  0  0  0  0  0  0  0  0  0  0
    0.8775    0.5085    0.0000 C   0  0  1  0  0  0  0  0  0  0  0  0
    0.8775   -0.3165    0.0000 C   0  0  2  0  0  0  0  0  0  0  0  0
    1.5919   -0.7290    0.0000 O   0  0  0  0  0  0  0  0  0  0  0  0
    0.1630   -0.7290    0.0000 C   0  0  0  0  0  0  0  0  0  0  0  0
   -0.5515   -0.3165    0.0000 C   0  0  0  0  0  0  0  0  0  0  0  0
   -1.2659   -0.7290    0.0000 C   0  0  0  0  0  0  0  0  0  0  0  0
   -1.2659   -1.5540    0.0000 O   0  0  0  0  0  0  0  0  0  0  0  0
   -1.9804   -0.3165    0.0000 O   0  0  0  0  0  0  0  0  0  0  0  0
   -0.5515    0.5085    0.0000 C   0  0  0  0  0  0  0  0  0  0  0  0
    0.1630    0.9210    0.0000 C   0  0  1  0  0  0  0  0  0  0  0  0
    0.1630    1.7460    0.0000 O   0  0  0  0  0  0  0  0  0  0  0  0
  2  1  1  1  0  0  0
  3  2  1  0  0  0  0
  2 11  1  0  0  0  0
  3  4  1  6  0  0  0
  5  3  1  0  0  0  0
  6  5  1  0  0  0  0
  7  6  1  0  0  0  0
 10  6  2  0  0  0  0
  7  8  1  0  0  0  0
  7  9  2  0  0  0  0
 10 11  1  0  0  0  0
 11 12  1  1  0  0  0
M  END
>  <MOLREGNO>
46711

>  <CHEMBLID>
CHEMBL290345

>  <SYNONYMS>
Shicimic Acid | Shikimic Acid

>  <MAX_PHASE>
0

>  <MOLWEIGHT>
174.15

>  <ALOGP>
-1.15

>  <PSA>
97.99

>  <HBA>
5

>  <HBD>
4

>  <RO5>
0

>  <RTB>
1

>  <RO3>
N

>  <ACD_MOST_APKA>
4.48

>  <ACD_MOST_BPKA>


>  <ACD_LOGP>
-2.22

>  <ACD_LOGD>
-5.1

>  <AROMATIC_RINGS>
0

>  <HEAVY_ATOMS>
12

>  <QED_WEIGHTED>
.4

>  <HBA_LIPINSKI>
5

>  <HBD_LIPINSKI>
4

>  <NUM_LIPINSKI_RO5_VIOLATIONS>
0

>  <MW_MONOISOTOPIC>
174.0528

>  <MOLECULAR_SPECIES>
ACID

>  <FULL_MOLFORMULA>
C7H10O5

$$$$

  SciTegic07111213582D

 20 22  0  0  0  0            999 V2000
   -1.9128   -0.0618    0.0000 C   0  0
   -2.6273   -0.4743    0.0000 C   0  0
   -2.6273   -1.2993    0.0000 C   0  0
   -3.3418   -1.7118    0.0000 O   0  0
   -1.9128   -1.7118    0.0000 C   0  0
   -1.1984   -1.2993    0.0000 C   0  0
   -1.1984   -0.4743    0.0000 C   0  0
   -0.4839   -0.0618    0.0000 C   0  0
    0.2306   -0.4743    0.0000 O   0  0
   -0.4839    0.7632    0.0000 C   0  0
    0.2306    1.1757    0.0000 C   0  0
    0.2306    2.0007    0.0000 O   0  0
    0.9450    0.7632    0.0000 C   0  0
    0.9450   -0.0618    0.0000 C   0  0
    1.6595   -0.4743    0.0000 C   0  0
    2.3740   -0.0618    0.0000 C   0  0
    3.0884   -0.4743    0.0000 O   0  0
    2.3740    0.7632    0.0000 C   0  0
    1.6595    1.1757    0.0000 C   0  0
    1.6595    2.0007    0.0000 O   0  0
  2  1  2  0
  1  7  1  0
  2  3  1  0
  3  4  1  0
  5  3  2  0
  5  6  1  0
  6  7  2  0
  7  8  1  0
  8  9  1  0
 10  8  2  0
 14  9  1  0
 10 11  1  0
 11 12  2  0
 11 13  1  0
 14 13  2  0
 19 13  1  0
 15 14  1  0
 15 16  2  0
 16 17  1  0
 18 16  1  0
 18 19  2  0
 19 20  1  0
M  END
>  <MOLREGNO>
1564

>  <CHEMBLID>
CHEMBL28

>  <SYNONYMS>
NSC-83244

>  <MAX_PHASE>
0

>  <MOLWEIGHT>
270.24

>  <ALOGP>
2.41

>  <PSA>
86.99

>  <HBA>
5

>  <HBD>
3

>  <RO5>
0

>  <RTB>
1

>  <RO3>
N

>  <ACD_MOST_APKA>
6.53

>  <ACD_MOST_BPKA>


>  <ACD_LOGP>
2.13

>  <ACD_LOGD>
.94

>  <AROMATIC_RINGS>
2

>  <HEAVY_ATOMS>
20

>  <QED_WEIGHTED>
.74

>  <HBA_LIPINSKI>
5

>  <HBD_LIPINSKI>
3

>  <NUM_LIPINSKI_RO5_VIOLATIONS>
0

>  <MW_MONOISOTOPIC>
270.0528

>  <MOLECULAR_SPECIES>
NEUTRAL

>  <FULL_MOLFORMULA>
C15H10O5

$$$$

  SciTegic12231509382D

 36 40  0  0  0  0            999 V2000
    4.3036  -17.0484    0.0000 O   0  0
    5.0142  -15.8132    0.0000 C   0  0
    5.0142  -16.6382    0.0000 C   0  0  1  0  0  0
    5.7249  -17.0484    0.0000 C   0  0
    5.7249  -15.3983    0.0000 C   0  0
    6.4399  -15.8132    0.0000 C   0  0  1  0  0  0
    6.4410  -16.6382    0.0000 C   0  0  1  0  0  0
    7.1521  -17.0475    0.0000 C   0  0
    7.8668  -16.6364    0.0000 C   0  0
    7.1501  -15.3974    0.0000 C   0  0  2  0  0  0
    7.8661  -15.8144    0.0000 C   0  0  2  0  0  0
    7.8705  -14.1601    0.0000 C   0  0
    7.1492  -14.5711    0.0000 C   0  0
    8.5865  -14.5770    0.0000 C   0  0
    8.5789  -15.4074    0.0000 C   0  0  1  0  0  0
    9.2902  -15.8268    0.0000 C   0  0
   10.0138  -15.4206    0.0000 C   0  0
    9.3055  -14.1662    0.0000 C   0  0  1  0  0  0
   10.0213  -14.5927    0.0000 C   0  0  2  0  0  0
   10.7446  -14.1881    0.0000 C   0  0
   10.7582  -13.3556    0.0000 C   0  0
   10.0424  -12.9292    0.0000 C   0  0
    9.3128  -13.3353    0.0000 C   0  0
    6.4320  -14.9926    0.0000 C   0  0
    7.8587  -14.9926    0.0000 C   0  0
    9.2992  -14.9835    0.0000 H   0  0
   10.7260  -15.0017    0.0000 C   0  0
   10.7261  -15.8152    0.0000 O   0  0
   11.4347  -14.5949    0.0000 O   0  0
    6.4320  -17.4542    0.0000 H   0  0
    7.1431  -16.2142    0.0000 H   0  0
    8.5698  -16.2234    0.0000 C   0  0
    5.0097  -17.4542    0.0000 C   0  0
    5.7162  -17.8689    0.0000 C   0  0
    9.3311  -12.5174    0.0000 C   0  0
   10.7520  -12.5173    0.0000 C   0  0
 16 17  1  0
 17 19  1  0
 18 19  1  0
  6 10  1  0
  7  8  1  0
  8  9  1  0
  9 11  1  0
 10 11  1  0
  3  4  1  0
 18 23  1  0
 19 20  1  0
 20 21  1  0
 21 22  1  0
 22 23  1  0
  3  1  1  1
  4  7  1  0
  6 24  1  1
  6  5  1  0
 11 25  1  1
  6  7  1  0
 18 26  1  1
 10 13  1  0
 19 27  1  1
 11 15  1  0
 14 12  2  0
 27 28  1  0
 27 29  2  0
 12 13  1  0
  7 30  1  6
 14 15  1  0
 10 31  1  6
 15 32  1  6
  2  3  1  0
  4 33  1  0
  4 34  1  0
  2  5  1  0
 22 35  1  0
 14 18  1  0
 22 36  1  0
 15 16  1  0
M  END
>  <MOLREGNO>
172779

>  <CHEMBLID>
CHEMBL168

>  <SYNONYMS>
Oleanolic Acid Glutaryl Hemi Ester | NSC-114945

>  <MAX_PHASE>
0

>  <MOLWEIGHT>
456.7

>  <ALOGP>
6.45

>  <PSA>
57.53

>  <HBA>
3

>  <HBD>
2

>  <RO5>
1

>  <RTB>
1

>  <RO3>
N

>  <ACD_MOST_APKA>
4.64

>  <ACD_MOST_BPKA>


>  <ACD_LOGP>
8.58

>  <ACD_LOGD>
5.86

>  <AROMATIC_RINGS>
0

>  <HEAVY_ATOMS>
33

>  <QED_WEIGHTED>
.45

>  <HBA_LIPINSKI>
3

>  <HBD_LIPINSKI>
2

>  <NUM_LIPINSKI_RO5_VIOLATIONS>
1

>  <MW_MONOISOTOPIC>
456.3603

>  <MOLECULAR_SPECIES>
ACID

>  <FULL_MOLFORMULA>
C30H48O3

$$$$

  Mrv0541 04051115152D          

 10  9  0  0  0  0            999 V2000
   -1.4225   -0.3103    0.0000 C   0  0  0  0  0  0  0  0  0  0  0  0
   -0.7080    0.1022    0.0000 C   0  0  1  0  0  0  0  0  0  0  0  0
    0.0065   -0.3103    0.0000 C   0  0  2  0  0  0  0  0  0  0  0  0
    0.7210    0.1022    0.0000 C   0  0  1  0  0  0  0  0  0  0  0  0
    1.4354   -0.3103    0.0000 C   0  0  0  0  0  0  0  0  0  0  0  0
   -2.1369    0.1022    0.0000 O   0  0  0  0  0  0  0  0  0  0  0  0
   -0.7080    0.9272    0.0000 O   0  0  0  0  0  0  0  0  0  0  0  0
    0.0065   -1.1353    0.0000 O   0  0  0  0  0  0  0  0  0  0  0  0
    0.7210    0.9272    0.0000 O   0  0  0  0  0  0  0  0  0  0  0  0
    2.1499    0.1022    0.0000 O   0  0  0  0  0  0  0  0  0  0  0  0
  1  2  1  0  0  0  0
  1  6  1  0  0  0  0
  2  3  1  0  0  0  0
  2  7  1  6  0  0  0
  3  4  1  0  0  0  0
  3  8  1  6  0  0  0
  4  5  1  0  0  0  0
  4  9  1  6  0  0  0
  5 10  1  0  0  0  0
M  END
>  <MOLREGNO>
153147

>  <CHEMBLID>
CHEMBL96783

>  <SYNONYMS>
Xylitol | E967

>  <MAX_PHASE>
3

>  <MOLWEIGHT>
152.15

>  <ALOGP>
-2.43

>  <PSA>
101.15

>  <HBA>
5

>  <HBD>
5

>  <RO5>
0

>  <RTB>
4

>  <RO3>
N

>  <ACD_MOST_APKA>
13.24

>  <ACD_MOST_BPKA>


>  <ACD_LOGP>
-2.65

>  <ACD_LOGD>
-2.65

>  <AROMATIC_RINGS>
0

>  <HEAVY_ATOMS>
10

>  <QED_WEIGHTED>
.31

>  <HBA_LIPINSKI>
5

>  <HBD_LIPINSKI>
5

>  <NUM_LIPINSKI_RO5_VIOLATIONS>
0

>  <MW_MONOISOTOPIC>
152.0685

>  <MOLECULAR_SPECIES>
NEUTRAL

>  <FULL_MOLFORMULA>
C5H12O5

$$$$

  SciTegic12231509382D

 29 33  0  0  0  0            999 V2000
   -0.1696  -10.4545    0.0000 C   0  0
   -0.5821   -9.7395    0.0000 C   0  0
   -0.6691  -11.1007    0.0000 N   0  0
    0.6554  -10.4545    0.0000 C   0  0  1  0  0  0
    1.8883  -11.1694    0.0000 C   0  0  1  0  0  0
    1.0679   -9.7395    0.0000 N   0  0
    2.2916  -11.8844    0.0000 C   0  0  1  0  0  0
    1.0634  -11.1694    0.0000 C   0  0
   -1.4208  -10.0145    0.0000 C   0  0
   -1.4483  -10.8395    0.0000 C   0  0
    2.3053  -10.4636    0.0000 C   0  0  2  0  0  0
    1.8746  -12.5994    0.0000 C   0  0
    1.8929   -9.7395    0.0000 C   0  0
   -0.1696   -9.0245    0.0000 C   0  0
    0.6554   -9.0245    0.0000 C   0  0
    3.1166  -11.8982    0.0000 C   0  0  2  0  0  0
    1.0496  -12.5948    0.0000 O   0  0
    3.1303  -10.4682    0.0000 C   0  0
    3.5291  -11.1832    0.0000 C   0  0
    2.2778  -13.3282    0.0000 O   0  0
    3.5291  -12.6223    0.0000 O   0  0
   -2.1266   -9.5745    0.0000 C   0  0
   -2.1771  -11.2244    0.0000 C   0  0
    3.1028  -13.3282    0.0000 C   0  0
   -2.8508   -9.9686    0.0000 C   0  0
   -2.8783  -10.7982    0.0000 C   0  0
    1.4666  -11.8844    0.0000 H   0  0
    0.2291  -11.1694    0.0000 H   0  0
    2.7133   -9.7348    0.0000 H   0  0
  2  1  2  0
  3  1  1  0
  4  1  1  0
  5  8  1  0
  6  4  1  0
  7  5  1  0
  8  4  1  0
  9  2  1  0
 10  3  1  0
 11  5  1  0
  7 12  1  6
 13  6  1  0
 14  2  1  0
 15  6  1  0
 16  7  1  0
 17 12  2  0
 18 11  1  0
 19 18  1  0
 20 12  1  0
 16 21  1  6
 22  9  1  0
 23 10  1  0
 24 20  1  0
 25 22  2  0
 26 23  2  0
  5 27  1  6
  4 28  1  6
 11 29  1  1
 10  9  2  0
 14 15  1  0
 13 11  1  0
 25 26  1  0
 16 19  1  0
M  END
>  <MOLREGNO>
15191

>  <CHEMBLID>
CHEMBL15245

>  <SYNONYMS>
Aphrodyne | Yobine | YOHIMBINE HYDROCHLORIDE | YOHIMBINE | Antagonil

>  <MAX_PHASE>
3

>  <MOLWEIGHT>
354.44

>  <ALOGP>
2.82

>  <PSA>
65.56

>  <HBA>
4

>  <HBD>
2

>  <RO5>
0

>  <RTB>
2

>  <RO3>
N

>  <ACD_MOST_APKA>


>  <ACD_MOST_BPKA>
8.44

>  <ACD_LOGP>
2.87

>  <ACD_LOGD>
1.72

>  <AROMATIC_RINGS>
2

>  <HEAVY_ATOMS>
26

>  <QED_WEIGHTED>
.81

>  <HBA_LIPINSKI>
5

>  <HBD_LIPINSKI>
2

>  <NUM_LIPINSKI_RO5_VIOLATIONS>
0

>  <MW_MONOISOTOPIC>
354.1943

>  <MOLECULAR_SPECIES>
NEUTRAL

>  <FULL_MOLFORMULA>
C21H26N2O3

$$$$

  SciTegic01111613442D

 12 13  0  0  1  0            999 V2000
    1.2121    3.8625    0.0000 N   0  0
    1.2990   -0.7500    0.0000 N   0  0
    0.0000    3.0008    0.0000 C   0  0  2  0  0  0
    0.0000    1.5000    0.0000 C   0  0
   -1.2149    3.8587    0.0000 C   0  0
    0.7463    5.2884    0.0000 C   0  0
    1.2990    0.7500    0.0000 C   0  0
   -1.2990    0.7500    0.0000 C   0  0
   -0.7537    5.2860    0.0000 C   0  0
   -1.2990   -0.7500    0.0000 C   0  0
    2.3518    3.4868    0.0000 C   0  0
    0.0000   -1.5000    0.0000 C   0  0
  1  3  1  0
  1  6  1  0
  1 11  1  0
  2  7  1  0
  2 12  2  0
  3  4  1  6
  3  5  1  0
  4  7  2  0
  4  8  1  0
  5  9  1  0
  6  9  1  0
  8 10  2  0
 10 12  1  0
M  END
>  <MOLREGNO>
115

>  <CHEMBLID>
CHEMBL3

>  <SYNONYMS>
NICORETTE | [3H]nicotine | Habitrol | NICODERM | Nicotine | (-)-Nicotine Hydrogen Tartrate Salt | Nicotrol NS | THRIVE | Prostep | COMMIT | Nicotrol | NICOTINE POLACRILEX | Nicotrol Inhaler | Nicoderm CQ | Nicotine Hydrochloride | NICOTINE BITARTRATE | NICORETTE (MINT)

>  <MAX_PHASE>
4

>  <MOLWEIGHT>
162.23

>  <ALOGP>
1.24

>  <PSA>
16.13

>  <HBA>
2

>  <HBD>
0

>  <RO5>
0

>  <RTB>
1

>  <RO3>
Y

>  <ACD_MOST_APKA>


>  <ACD_MOST_BPKA>
8

>  <ACD_LOGP>
.57

>  <ACD_LOGD>
-.62

>  <AROMATIC_RINGS>
1

>  <HEAVY_ATOMS>
12

>  <QED_WEIGHTED>
.62

>  <HBA_LIPINSKI>
2

>  <HBD_LIPINSKI>
0

>  <NUM_LIPINSKI_RO5_VIOLATIONS>
0

>  <MW_MONOISOTOPIC>
162.1157

>  <MOLECULAR_SPECIES>
NEUTRAL

>  <FULL_MOLFORMULA>
C10H14N2

$$$$

  SciTegic12231509382D

 16 18  0  0  0  0            999 V2000
    3.1133  -13.4319    0.0000 C   0  0
    3.1140  -14.2577    0.0000 C   0  0
    3.8314  -14.6686    0.0000 C   0  0
    4.5446  -14.2558    0.0000 N   0  0
    4.5440  -13.4300    0.0000 C   0  0
    3.8266  -13.0190    0.0000 C   0  0
    3.8319  -15.4946    0.0000 O   0  0
    5.2579  -14.6667    0.0000 C   0  0
    5.9711  -14.2539    0.0000 C   0  0  1  0  0  0
    5.2531  -13.0171    0.0000 C   0  0  1  0  0  0
    5.9502  -12.6137    0.0000 C   0  0
    5.9705  -13.4281    0.0000 C   0  0
    6.6683  -13.8505    0.0000 C   0  0
    6.6676  -13.0246    0.0000 N   0  0
    4.5401  -12.6066    0.0000 H   0  0
    5.9639  -15.0732    0.0000 H   0  0
  2  3  1  0
  3  4  1  0
  4  5  1  0
  5  6  2  0
  6  1  1  0
  3  7  2  0
  4  8  1  0
  8  9  1  0
  5 10  1  0
 10 11  1  0
  9 12  1  0
 10 12  1  0
  9 13  1  0
 11 14  1  0
 13 14  1  0
 10 15  1  6
  1  2  2  0
  9 16  1  6
M  END
>  <MOLREGNO>
522894

>  <CHEMBLID>
CHEMBL497939

>  <SYNONYMS>
(-)-CYTISINE | 4, (-)-CYTISINE | [3H]cytisine

>  <MAX_PHASE>
0

>  <MOLWEIGHT>
190.24

>  <ALOGP>
-.34

>  <PSA>
32.34

>  <HBA>
2

>  <HBD>
1

>  <RO5>
0

>  <RTB>
0

>  <RO3>
Y

>  <ACD_MOST_APKA>
11.77

>  <ACD_MOST_BPKA>


>  <ACD_LOGP>
-.01

>  <ACD_LOGD>
-.01

>  <AROMATIC_RINGS>
0

>  <HEAVY_ATOMS>
14

>  <QED_WEIGHTED>
.57

>  <HBA_LIPINSKI>
3

>  <HBD_LIPINSKI>
1

>  <NUM_LIPINSKI_RO5_VIOLATIONS>
0

>  <MW_MONOISOTOPIC>
190.1106

>  <MOLECULAR_SPECIES>
NEUTRAL

>  <FULL_MOLFORMULA>
C11H14N2O

$$$$

  Mrv0541 04051115152D          

 29 31  0  0  0  0            999 V2000
   -1.5441   -3.2314    0.0000 O   0  0  0  0  0  0  0  0  0  0  0  0
   -0.9172   -2.6951    0.0000 C   0  0  0  0  0  0  0  0  0  0  0  0
   -0.1393   -2.9698    0.0000 C   0  0  0  0  0  0  0  0  0  0  0  0
   -1.0682   -1.8840    0.0000 N   0  0  0  0  0  0  0  0  0  0  0  0
   -0.4413   -1.3477    0.0000 C   0  0  2  0  0  0  0  0  0  0  0  0
   -0.6525   -0.5502    0.0000 C   0  0  0  0  0  0  0  0  0  0  0  0
   -1.4770   -0.5786    0.0000 C   0  0  0  0  0  0  0  0  0  0  0  0
    0.3139   -1.6798    0.0000 C   0  0  0  0  0  0  0  0  0  0  0  0
    1.0444   -1.2964    0.0000 C   0  0  0  0  0  0  0  0  0  0  0  0
    1.2002   -0.4863    0.0000 C   0  0  0  0  0  0  0  0  0  0  0  0
    2.0112   -0.3353    0.0000 C   0  0  0  0  0  0  0  0  0  0  0  0
    2.2860    0.4427    0.0000 C   0  0  0  0  0  0  0  0  0  0  0  0
    1.7496    1.0695    0.0000 C   0  0  0  0  0  0  0  0  0  0  0  0
    0.9386    0.9185    0.0000 C   0  0  0  0  0  0  0  0  0  0  0  0
    0.4023    1.5454    0.0000 O   0  0  0  0  0  0  0  0  0  0  0  0
   -0.4088    1.3944    0.0000 C   0  0  0  0  0  0  0  0  0  0  0  0
    2.0244    1.8475    0.0000 O   0  0  0  0  0  0  0  0  0  0  0  0
    1.4881    2.4743    0.0000 C   0  0  0  0  0  0  0  0  0  0  0  0
    3.0970    0.5937    0.0000 O   0  0  0  0  0  0  0  0  0  0  0  0
    3.3718    1.3716    0.0000 C   0  0  0  0  0  0  0  0  0  0  0  0
    0.6638    0.1406    0.0000 C   0  0  0  0  0  0  0  0  0  0  0  0
   -0.1607    0.1122    0.0000 C   0  0  0  0  0  0  0  0  0  0  0  0
   -0.3719    0.9097    0.0000 C   0  0  0  0  0  0  0  0  0  0  0  0
   -1.1271    1.2418    0.0000 C   0  0  0  0  0  0  0  0  0  0  0  0
   -1.8576    0.8584    0.0000 C   0  0  0  0  0  0  0  0  0  0  0  0
   -2.0133    0.0482    0.0000 C   0  0  0  0  0  0  0  0  0  0  0  0
   -2.8108   -0.1630    0.0000 O   0  0  0  0  0  0  0  0  0  0  0  0
   -2.5200    1.3502    0.0000 O   0  0  0  0  0  0  0  0  0  0  0  0
   -3.2771    1.0225    0.0000 C   0  0  0  0  0  0  0  0  0  0  0  0
  2  1  2  0  0  0  0
  2  3  1  0  0  0  0
  2  4  1  0  0  0  0
  5  4  1  6  0  0  0
  5  6  1  0  0  0  0
  8  5  1  0  0  0  0
  6  7  2  0  0  0  0
  6 22  1  0  0  0  0
  7 26  1  0  0  0  0
  8  9  1  0  0  0  0
 10  9  1  0  0  0  0
 11 10  2  0  0  0  0
 21 10  1  0  0  0  0
 12 11  1  0  0  0  0
 13 12  2  0  0  0  0
 12 19  1  0  0  0  0
 14 13  1  0  0  0  0
 13 17  1  0  0  0  0
 14 15  1  0  0  0  0
 14 21  2  0  0  0  0
 16 15  1  0  0  0  0
 18 17  1  0  0  0  0
 20 19  1  0  0  0  0
 22 21  1  0  0  0  0
 23 22  2  0  0  0  0
 24 23  1  0  0  0  0
 25 24  2  0  0  0  0
 26 25  1  0  0  0  0
 25 28  1  0  0  0  0
 26 27  2  0  0  0  0
 29 28  1  0  0  0  0
M  END
>  <MOLREGNO>
14440

>  <CHEMBLID>
CHEMBL107

>  <SYNONYMS>
Colcrys | Colchicine

>  <MAX_PHASE>
4

>  <MOLWEIGHT>
399.44

>  <ALOGP>
2.04

>  <PSA>
83.09

>  <HBA>
6

>  <HBD>
1

>  <RO5>
0

>  <RTB>
5

>  <RO3>
N

>  <ACD_MOST_APKA>


>  <ACD_MOST_BPKA>


>  <ACD_LOGP>
1.07

>  <ACD_LOGD>
1.07

>  <AROMATIC_RINGS>
1

>  <HEAVY_ATOMS>
29

>  <QED_WEIGHTED>
.82

>  <HBA_LIPINSKI>
7

>  <HBD_LIPINSKI>
1

>  <NUM_LIPINSKI_RO5_VIOLATIONS>
0

>  <MW_MONOISOTOPIC>
399.1682

>  <MOLECULAR_SPECIES>
NEUTRAL

>  <FULL_MOLFORMULA>
C22H25NO6

$$$$

  CDK    9/16/09,9:19

 20 21  0  0  0  0  0  0  0  0999 V2000
   17.7044  -14.3071    0.0000 C   0  0  0  0  0  0  0  0  0  0  0  0
   17.7032  -15.1341    0.0000 C   0  0  0  0  0  0  0  0  0  0  0  0
   18.4178  -15.5469    0.0000 C   0  0  0  0  0  0  0  0  0  0  0  0
   19.1340  -15.1337    0.0000 C   0  0  0  0  0  0  0  0  0  0  0  0
   19.1311  -14.3034    0.0000 C   0  0  0  0  0  0  0  0  0  0  0  0
   18.4160  -13.8945    0.0000 C   0  0  0  0  0  0  0  0  0  0  0  0
   16.9901  -13.8949    0.0000 O   0  0  0  0  0  0  0  0  0  0  0  0
   16.2760  -14.3074    0.0000 C   0  0  0  0  0  0  0  0  0  0  0  0
   18.4136  -13.0698    0.0000 C   0  0  0  0  0  0  0  0  0  0  0  0
   19.1265  -12.6553    0.0000 O   0  0  0  0  0  0  0  0  0  0  0  0
   15.5614  -13.8944    0.0000 O   0  0  0  0  0  0  0  0  0  0  0  0
   14.8495  -14.3034    0.0000 C   0  0  0  0  0  0  0  0  0  0  0  0
   14.8454  -15.1284    0.0000 C   0  0  0  0  0  0  0  0  0  0  0  0
   15.5595  -15.5428    0.0000 C   0  0  0  0  0  0  0  0  0  0  0  0
   16.2778  -15.1321    0.0000 C   0  0  0  0  0  0  0  0  0  0  0  0
   16.9916  -15.5452    0.0000 O   0  0  0  0  0  0  0  0  0  0  0  0
   15.5570  -16.3674    0.0000 O   0  0  0  0  0  0  0  0  0  0  0  0
   14.1298  -15.5383    0.0000 O   0  0  0  0  0  0  0  0  0  0  0  0
   14.1368  -13.8885    0.0000 C   0  0  0  0  0  0  0  0  0  0  0  0
   14.1397  -13.0638    0.0000 O   0  0  0  0  0  0  0  0  0  0  0  0
  9 10  1  0  0  0  0 
  8 11  1  0  0  0  0 
  2  3  1  0  0  0  0 
  5  6  2  0  0  0  0 
  6  1  1  0  0  0  0 
  1  2  2  0  0  0  0 
  1  7  1  0  0  0  0 
  8 15  1  0  0  0  0 
 11 12  1  0  0  0  0 
 12 13  1  0  0  0  0 
 13 14  1  0  0  0  0 
 14 15  1  0  0  0  0 
  3  4  2  0  0  0  0 
 15 16  1  6  0  0  0 
  8  7  1  1  0  0  0 
 14 17  1  1  0  0  0 
 13 18  1  6  0  0  0 
  6  9  1  0  0  0  0 
 12 19  1  1  0  0  0 
  4  5  1  0  0  0  0 
 19 20  1  0  0  0  0 
M  END
>  <MOLREGNO>
443229

>  <CHEMBLID>
CHEMBL462997

>  <SYNONYMS>
SALICIN

>  <MAX_PHASE>
0

>  <MOLWEIGHT>
286.28

>  <ALOGP>
-.95

>  <PSA>
119.61

>  <HBA>
7

>  <HBD>
5

>  <RO5>
0

>  <RTB>
4

>  <RO3>
N

>  <ACD_MOST_APKA>
12.8

>  <ACD_MOST_BPKA>


>  <ACD_LOGP>
-1.23

>  <ACD_LOGD>
-1.23

>  <AROMATIC_RINGS>
1

>  <HEAVY_ATOMS>
20

>  <QED_WEIGHTED>
.48

>  <HBA_LIPINSKI>
7

>  <HBD_LIPINSKI>
5

>  <NUM_LIPINSKI_RO5_VIOLATIONS>
0

>  <MW_MONOISOTOPIC>
286.1053

>  <MOLECULAR_SPECIES>
NEUTRAL

>  <FULL_MOLFORMULA>
C13H18O7

$$$$

  SciTegic06161612072D

 35 39  0  0  0  0            999 V2000
    0.0000    0.7486    0.0000 C   0  0
   -1.2964    1.4973    0.0000 C   0  0
   -1.2964   -1.4973    0.0000 O   0  0
    0.0000   -0.7486    0.0000 C   0  0
   -2.6111    0.7486    0.0000 C   0  0
   -2.6111   -0.7486    0.0000 C   0  0
   -7.8029   -0.7805    0.0000 O   0  0
    1.2964    1.4973    0.0000 C   0  0
   -9.1126   -1.5379    0.0000 C   0  0
   -7.7829   -3.7750    0.0000 O   0  0
   -6.5015   -1.5204    0.0000 C   0  0
   -9.1026   -3.0352    0.0000 C   0  0
   -3.9086   -1.5029    0.0000 C   0  0
  -10.4151   -0.7924    0.0000 C   0  0
   -6.4915   -3.0177    0.0000 C   0  0
    1.2964   -1.4973    0.0000 C   0  0
   -5.2101   -0.7631    0.0000 C   0  0
    2.5929    0.7486    0.0000 C   0  0
  -11.7140   -1.5423    0.0000 C   0  0
  -13.0131   -0.7923    0.0000 C   0  0
   -1.2928    2.6973    0.0000 O   0  0
    2.5929   -0.7486    0.0000 C   0  0
  -13.0131    0.7077    0.0000 C   0  0
   -3.8987   -3.0003    0.0000 C   0  0
  -10.4150    0.7077    0.0000 C   0  0
   -5.1901   -3.7576    0.0000 C   0  0
  -11.7141    1.4577    0.0000 C   0  0
   -3.6486    1.3517    0.0000 O   0  0
    1.2964    2.6973    0.0000 O   0  0
  -14.3113   -1.5454    0.0000 O   0  0
  -10.3955   -3.7971    0.0000 C   0  0
  -14.0523    1.3077    0.0000 O   0  0
    3.6321   -1.3486    0.0000 O   0  0
  -10.3856   -4.9971    0.0000 O   0  0
  -14.3096   -2.7454    0.0000 C   0  0
  2  1  1  0
  3  4  1  0
  4  1  2  0
  5  2  1  0
  6  3  1  0
  7 11  1  0
  8  1  1  0
  9  7  1  0
 10 15  1  0
 11 17  1  0
 12 10  1  0
 13  6  1  0
 14  9  1  0
 15 26  1  0
 16  4  1  0
 17 13  2  0
 18  8  2  0
 19 14  1  0
 20 19  2  0
 21  2  2  0
 22 18  1  0
 23 27  2  0
 24 13  1  0
 25 14  2  0
 26 24  2  0
 27 25  1  0
 28  5  1  0
 29  8  1  0
 30 20  1  0
 31 12  1  0
 32 23  1  0
 33 22  1  0
 34 31  1  0
 35 30  1  0
 16 22  2  0
  5  6  1  0
 11 15  2  0
  9 12  1  0
 20 23  1  0
M  END

>  <MOLREGNO>
825392

>  <CHEMBLID>
CHEMBL1401508

>  <SYNONYMS>
SILIBININ

>  <MAX_PHASE>
2

>  <MOLWEIGHT>
482.44

>  <ALOGP>
2.59

>  <PSA>
155.14

>  <HBA>
10

>  <HBD>
5

>  <RO5>
0

>  <RTB>
4

>  <RO3>
N

>  <ACD_MOST_APKA>
7.39

>  <ACD_MOST_BPKA>


>  <ACD_LOGP>
4.23

>  <ACD_LOGD>
3.73

>  <AROMATIC_RINGS>
3

>  <HEAVY_ATOMS>
35

>  <QED_WEIGHTED>
.38

>  <HBA_LIPINSKI>
10

>  <HBD_LIPINSKI>
5

>  <NUM_LIPINSKI_RO5_VIOLATIONS>
0

>  <MW_MONOISOTOPIC>
482.1213

>  <MOLECULAR_SPECIES>
NEUTRAL

>  <FULL_MOLFORMULA>
C25H22O10

$$$$

  SciTegic10311316302D

 38 43  0  0  0  0            999 V2000
    2.7177   -1.7701    0.0000 C   0  0
    2.0078   -2.1951    0.0000 C   0  0
    2.0218   -3.0205    0.0000 C   0  0
    3.4380   -2.1679    0.0000 C   0  0
    3.4555   -2.9918    0.0000 C   0  0
    2.7470   -3.4213    0.0000 C   0  0
    2.7645   -4.2449    0.0000 O   0  0
    3.4891   -4.6455    0.0000 C   0  0  1  0  0  0
    4.1976   -4.2162    0.0000 C   0  0  2  0  0  0
    4.1815   -3.3861    0.0000 C   0  0
    1.2867   -1.7944    0.0000 O   0  0
    4.1440   -1.7411    0.0000 O   0  0
    4.8865   -2.9576    0.0000 O   0  0
    4.9202   -4.6140    0.0000 O   0  0
    3.5055   -5.4704    0.0000 C   0  0
    2.7973   -5.8836    0.0000 C   0  0
    2.7959   -6.7092    0.0000 C   0  0  1  0  0  0
    3.5074   -7.1196    0.0000 C   0  0
    4.2229   -5.8828    0.0000 C   0  0  2  0  0  0
    4.2236   -6.7061    0.0000 C   0  0  1  0  0  0
    5.0069   -6.9598    0.0000 O   0  0
    5.4903   -6.2933    0.0000 C   0  0
    5.0057   -5.6277    0.0000 C   0  0  2  0  0  0
    3.5076   -7.9446    0.0000 O   0  0
    4.2167   -5.0541    0.0000 H   0  0
    4.2167   -7.5291    0.0000 O   0  0
    2.0812   -7.1212    0.0000 H   0  0
    5.8291   -5.6250    0.0000 C   0  0  1  0  0  0
    6.6417   -5.4826    0.0000 C   0  0
    7.1675   -6.1152    0.0000 C   0  0
    7.9795   -5.9734    0.0000 C   0  0
    8.2632   -5.1979    0.0000 C   0  0
    7.7289   -4.5637    0.0000 C   0  0
    6.9189   -4.7087    0.0000 C   0  0
    9.0756   -5.0545    0.0000 O   0  0
    8.5087   -6.6063    0.0000 O   0  0
    8.2252   -7.3811    0.0000 C   0  0
    5.5874   -5.0374    0.0000 H   0  0
  1  2  2  0
  2  3  1  0
  3  6  2  0
  5  4  2  0
  4  1  1  0
  5  6  1  0
  5 10  1  0
  6  7  1  0
  7  8  1  0
  8  9  1  0
  9 10  1  0
  2 11  1  0
  4 12  1  0
 10 13  2  0
  9 14  1  6
  8 15  1  1
 16 17  1  0
 16 15  2  0
 17 18  1  0
 18 20  1  0
 19 15  1  0
 19 20  1  0
 20 21  1  0
 21 22  1  0
 22 23  1  0
 23 19  1  0
 18 24  2  0
 19 25  1  6
 20 26  1  6
 17 27  1  1
 23 28  1  0
 17 28  1  0
 28 29  1  1
 29 30  2  0
 30 31  1  0
 31 32  2  0
 32 33  1  0
 33 34  2  0
 34 29  1  0
 32 35  1  0
 31 36  1  0
 36 37  1  0
 23 38  1  6
M  END
>  <MOLREGNO>
1568247

>  <CHEMBLID>
CHEMBL2397733

>  <SYNONYMS>


>  <MAX_PHASE>
0

>  <MOLWEIGHT>
482.44

>  <ALOGP>
1.06

>  <PSA>
162.97

>  <HBA>
10

>  <HBD>
5

>  <RO5>
0

>  <RTB>
3

>  <RO3>
N

>  <ACD_MOST_APKA>
13

>  <ACD_MOST_BPKA>
6.49

>  <ACD_LOGP>
8.44

>  <ACD_LOGD>
8.39

>  <AROMATIC_RINGS>
2

>  <HEAVY_ATOMS>
35

>  <QED_WEIGHTED>
.4

>  <HBA_LIPINSKI>
10

>  <HBD_LIPINSKI>
5

>  <NUM_LIPINSKI_RO5_VIOLATIONS>
0

>  <MW_MONOISOTOPIC>
482.1213

>  <MOLECULAR_SPECIES>
NEUTRAL

>  <FULL_MOLFORMULA>
C25H22O10

$$$$

  SciTegic11301210262D

 35 39  0  0  0  0            999 V2000
   -2.8958    0.5333    0.0000 C   0  0
   -2.7833    1.2875    0.0000 C   0  0
    0.5042    0.4250    0.0000 C   0  0
    0.8917    1.1000    0.0000 C   0  0
   -1.5833    0.3375    0.0000 O   0  0
    1.6417    0.9458    0.0000 O   0  0
   -2.2875    0.0500    0.0000 C   0  0
   -1.4458    1.0875    0.0000 C   0  0
   -2.0500    1.5958    0.0000 C   0  0
    1.7167    0.1875    0.0000 C   0  0
    1.0417   -0.1167    0.0000 C   0  0
   -0.6083    1.0708    0.0000 C   0  0
   -3.6208    0.2583    0.0000 C   0  0
   -0.2208    0.4208    0.0000 C   0  0
    2.3500   -0.2167    0.0000 C   0  0
    0.5000    1.7500    0.0000 C   0  0
   -0.2333    1.7458    0.0000 C   0  0
   -2.4250   -0.6792    0.0000 C   0  0
   -3.7333   -0.4917    0.0000 C   0  0
    2.3375   -0.9542    0.0000 C   0  0
    2.9542   -1.3625    0.0000 C   0  0
   -3.3833    1.7708    0.0000 O   0  0
   -3.1083   -0.9542    0.0000 C   0  0
    3.6417   -1.0167    0.0000 C   0  0
    2.9917    0.1500    0.0000 C   0  0
    3.6625   -0.2542    0.0000 C   0  0
   -1.9458    2.3458    0.0000 O   0  0
   -4.2083    0.7458    0.0000 O   0  0
    0.8750    2.4250    0.0000 O   0  0
    0.8917   -0.8417    0.0000 C   0  0
    2.9542   -2.1250    0.0000 O   0  0
    4.2542   -1.4667    0.0000 O   0  0
   -3.2458   -1.7042    0.0000 O   0  0
    0.1667   -1.0917    0.0000 O   0  0
    3.5792   -2.5375    0.0000 C   0  0
  2  1  1  0
  3 14  1  0
  4 16  1  0
  5  7  1  0
  6  4  1  0
  7  1  2  0
  8  5  1  0
  9  2  1  0
 10 11  1  0
 11  3  1  0
 12  8  1  0
 13  1  1  0
 14 12  2  0
 15 10  1  0
 16 17  2  0
 17 12  1  0
 18  7  1  0
 19 13  2  0
 20 15  2  0
 21 20  1  0
 22  2  2  0
 23 19  1  0
 24 26  1  0
 25 15  1  0
 26 25  2  0
 27  9  1  0
 28 13  1  0
 29 16  1  0
 30 11  1  0
 31 21  1  0
 32 24  1  0
 33 23  1  0
 34 30  1  0
 35 31  1  0
  9  8  1  0
 18 23  2  0
  3  4  2  0
  6 10  1  0
 21 24  2  0
M  END
>  <MOLREGNO>
1379813

>  <CHEMBLID>
CHEMBL2107543

>  <SYNONYMS>
SILICRISTIN

>  <MAX_PHASE>
0

>  <MOLWEIGHT>
482.44

>  <ALOGP>
2.23

>  <PSA>
166.14

>  <HBA>
10

>  <HBD>
6

>  <RO5>
1

>  <RTB>
4

>  <RO3>
N

>  <ACD_MOST_APKA>
11.98

>  <ACD_MOST_BPKA>
8.14

>  <ACD_LOGP>
1.15

>  <ACD_LOGD>
.41

>  <AROMATIC_RINGS>
3

>  <HEAVY_ATOMS>
35

>  <QED_WEIGHTED>
.33

>  <HBA_LIPINSKI>
10

>  <HBD_LIPINSKI>
6

>  <NUM_LIPINSKI_RO5_VIOLATIONS>
1

>  <MW_MONOISOTOPIC>
482.1213

>  <MOLECULAR_SPECIES>
NEUTRAL

>  <FULL_MOLFORMULA>
C25H22O10

$$$$

  SciTegic01161211262D

 41 45  0  0  0  0            999 V2000
   -0.1473    1.7973    0.0000 C   0  0
   -0.8618    1.3848    0.0000 C   0  0
   -0.8618    0.5598    0.0000 C   0  0
   -0.1473    0.1473    0.0000 C   0  0
    0.5672    0.5598    0.0000 C   0  0
    0.5672    1.3848    0.0000 C   0  0
    1.9961    0.5598    0.0000 C   0  0
    1.9961    1.3848    0.0000 C   0  0
    1.2817    1.7973    0.0000 O   0  0
    1.2817    0.1473    0.0000 C   0  0
    2.7106    1.7973    0.0000 C   0  0
    3.4251    1.3848    0.0000 C   0  0
    4.1396    1.7972    0.0000 C   0  0
    4.1396    2.6223    0.0000 C   0  0
    3.4251    3.0348    0.0000 C   0  0
    2.7106    2.6223    0.0000 C   0  0
    4.8540    3.0348    0.0000 O   0  0
    1.2816   -0.6777    0.0000 O   0  0
   -1.5763    1.7973    0.0000 O   0  0
   -2.2908    1.3848    0.0000 C   0  0  2  0  0  0
   -3.0052    1.7973    0.0000 O   0  0
   -3.7197    1.3848    0.0000 C   0  0  1  0  0  0
   -3.7197    0.5598    0.0000 C   0  0  2  0  0  0
   -3.0053    0.1473    0.0000 C   0  0  1  0  0  0
   -2.2908    0.5598    0.0000 C   0  0  1  0  0  0
   -1.5763    0.1473    0.0000 O   0  0
   -1.5763   -0.6777    0.0000 C   0  0  2  0  0  0
   -2.2908   -1.0902    0.0000 O   0  0
   -2.2908   -1.9152    0.0000 C   0  0  2  0  0  0
   -1.5763   -2.3277    0.0000 C   0  0  1  0  0  0
   -0.8618   -1.9152    0.0000 C   0  0  2  0  0  0
   -0.8618   -1.0902    0.0000 C   0  0  1  0  0  0
   -4.4342    1.7973    0.0000 C   0  0
   -3.0053   -0.6777    0.0000 O   0  0
   -1.5763   -3.1527    0.0000 O   0  0
   -0.1474   -2.3277    0.0000 O   0  0
   -0.7661   -0.2063    0.0000 O   0  0
   -3.0052   -2.3277    0.0000 C   0  0
   -4.4342    0.1473    0.0000 O   0  0
   -5.1487    1.3848    0.0000 O   0  0
   -0.1540   -0.6777    0.0000 O   0  0
  1  2  1  0
  1  6  2  0
  2  3  2  0
  3  4  1  0
  4  5  2  0
  5 10  1  0
  6  5  1  0
  9  6  1  0
  7  8  2  0
 10  7  1  0
  8  9  1  0
  8 11  1  0
 11 12  1  0
 11 16  2  0
 12 13  2  0
 13 14  1  0
 14 15  2  0
 15 16  1  0
 14 17  1  0
 10 18  2  0
  2 19  1  0
 20 19  1  1
 20 21  1  0
 25 20  1  0
 21 22  1  0
 22 23  1  0
 23 24  1  0
 24 25  1  0
 25 26  1  6
 27 26  1  1
 27 28  1  0
 32 27  1  0
 28 29  1  0
 29 30  1  0
 30 31  1  0
 31 32  1  0
 22 33  1  1
 24 34  1  1
 30 35  1  1
 31 36  1  6
 32 37  1  6
 29 38  1  6
 23 39  1  6
 33 40  1  0
  4 41  1  0
M  END
>  <MOLREGNO>
390247

>  <CHEMBLID>
CHEMBL395990

>  <SYNONYMS>
Apigenin-7-Neohesperidoside | Rhoifolin

>  <MAX_PHASE>
0

>  <MOLWEIGHT>
578.52

>  <ALOGP>
-.38

>  <PSA>
225.05

>  <HBA>
14

>  <HBD>
8

>  <RO5>
3

>  <RTB>
6

>  <RO3>
N

>  <ACD_MOST_APKA>
6.11

>  <ACD_MOST_BPKA>


>  <ACD_LOGP>
-.06

>  <ACD_LOGD>
-1.37

>  <AROMATIC_RINGS>
2

>  <HEAVY_ATOMS>
41

>  <QED_WEIGHTED>
.22

>  <HBA_LIPINSKI>
14

>  <HBD_LIPINSKI>
8

>  <NUM_LIPINSKI_RO5_VIOLATIONS>
2

>  <MW_MONOISOTOPIC>
578.1636

>  <MOLECULAR_SPECIES>
ACID

>  <FULL_MOLFORMULA>
C27H30O14

$$$$

  SciTegic12231509382D

  8  7  0  0  0  0            999 V2000
    3.7792   -2.4042    0.0000 C   0  0
    4.3926   -2.0500    0.0000 C   0  0
    5.0060   -2.4042    0.0000 O   0  0
    4.3926   -1.3417    0.0000 O   0  0
    3.1657   -2.0500    0.0000 N   0  3
    2.5523   -2.4042    0.0000 C   0  0
    3.5125   -1.4333    0.0000 C   0  0
    2.8042   -1.4333    0.0000 C   0  0
  1  2  1  0
  1  5  1  0
  5  6  1  0
  2  3  1  0
  5  7  1  0
  5  8  1  0
  2  4  2  0
M  CHG  1   5   1
M  END
>  <MOLREGNO>
160056

>  <CHEMBLID>
CHEMBL95889

>  <SYNONYMS>
BETAINE HYDROCHLORIDE | LYCINE HYDROCHLORIDE | Cystadane | CYSTADANE | Betaine, anhydrous | BETAINE

>  <MAX_PHASE>
4

>  <MOLWEIGHT>
118.15

>  <ALOGP>
-1.55

>  <PSA>
37.29

>  <HBA>
2

>  <HBD>
1

>  <RO5>
0

>  <RTB>
2

>  <RO3>
Y

>  <ACD_MOST_APKA>
1.8

>  <ACD_MOST_BPKA>


>  <ACD_LOGP>
-3.23

>  <ACD_LOGD>
-2.63

>  <AROMATIC_RINGS>
0

>  <HEAVY_ATOMS>
8

>  <QED_WEIGHTED>
.45

>  <HBA_LIPINSKI>
3

>  <HBD_LIPINSKI>
1

>  <NUM_LIPINSKI_RO5_VIOLATIONS>
0

>  <MW_MONOISOTOPIC>
118.0868

>  <MOLECULAR_SPECIES>
ACID

>  <FULL_MOLFORMULA>
C5H12NO2

$$$$

  SciTegic12231509382D

  8  7  0  0  0  0            999 V2000
    1.6505    0.0000    0.0000 O   0  5
    2.8855   -0.7127    0.0000 O   0  0
    0.8195   -1.4254    0.0000 N   0  3
    1.6505   -1.4254    0.0000 C   0  0
    2.0660   -0.7127    0.0000 C   0  0
    0.0000   -1.4254    0.0000 C   0  0
    0.8195   -2.2450    0.0000 C   0  0
    0.8195   -0.6030    0.0000 C   0  0
  1  5  1  0
  2  5  2  0
  3  4  1  0
  3  6  1  0
  3  7  1  0
  3  8  1  0
  4  5  1  0
M  CHG  2   1  -1   3   1
M  END
>  <MOLREGNO>
195651

>  <CHEMBLID>
CHEMBL1182

>  <SYNONYMS>
2-(Trimethylammonio)Acetate

>  <MAX_PHASE>
0

>  <MOLWEIGHT>
117.15

>  <ALOGP>
-3.03

>  <PSA>
40.12

>  <HBA>
2

>  <HBD>
0

>  <RO5>
0

>  <RTB>
2

>  <RO3>
Y

>  <ACD_MOST_APKA>
9.51

>  <ACD_MOST_BPKA>


>  <ACD_LOGP>
6.95

>  <ACD_LOGD>
6.95

>  <AROMATIC_RINGS>
0

>  <HEAVY_ATOMS>
8

>  <QED_WEIGHTED>
.36

>  <HBA_LIPINSKI>
3

>  <HBD_LIPINSKI>
0

>  <NUM_LIPINSKI_RO5_VIOLATIONS>
0

>  <MW_MONOISOTOPIC>
117.079

>  <MOLECULAR_SPECIES>
NEUTRAL

>  <FULL_MOLFORMULA>
C5H11NO2

$$$$

          11280715502D 1   1.00000     0.00000     0

 20 21  0     1  0            999 V2000
   12.8431  -11.4072    0.0000 C   0  0  0  0  0  0           0  0  0
   12.8419  -12.2345    0.0000 C   0  0  0  0  0  0           0  0  0
   13.5568  -12.6472    0.0000 C   0  0  0  0  0  0           0  0  0
   14.2731  -12.2340    0.0000 C   0  0  0  0  0  0           0  0  0
   14.2702  -11.4036    0.0000 C   0  0  0  0  0  0           0  0  0
   13.5550  -10.9944    0.0000 C   0  0  0  0  0  0           0  0  0
   12.1273  -12.6463    0.0000 C   0  0  0  0  0  0           0  0  0
   14.9831  -10.9884    0.0000 O   0  0  0  0  0  0           0  0  0
   14.9799  -10.1635    0.0000 C   0  0  2  0  0  0           0  0  0
   12.1266  -13.4713    0.0000 O   0  0  0  0  0  0           0  0  0
   15.6940   -9.7528    0.0000 O   0  0  0  0  0  0           0  0  0
   15.6928   -8.9315    0.0000 C   0  0  1  0  0  0           0  0  0
   14.9787   -8.5179    0.0000 C   0  0  2  0  0  0           0  0  0
   14.2641   -8.9318    0.0000 C   0  0  1  0  0  0           0  0  0
   14.2636   -9.7593    0.0000 C   0  0  1  0  0  0           0  0  0
   13.5511  -10.1751    0.0000 O   0  0  0  0  0  0           0  0  0
   13.5496   -8.5196    0.0000 O   0  0  0  0  0  0           0  0  0
   16.4073   -8.5191    0.0000 C   0  0  0  0  0  0           0  0  0
   14.9787   -7.6929    0.0000 O   0  0  0  0  0  0           0  0  0
   17.1217   -8.9315    0.0000 O   0  0  0  0  0  0           0  0  0
  7 10  1  0     0  0
  9 11  1  0     0  0
  2  3  1  0     0  0
  5  6  2  0     0  0
  6  1  1  0     0  0
  1  2  2  0     0  0
  2  7  1  0     0  0
  9 15  1  0     0  0
 11 12  1  0     0  0
 12 13  1  0     0  0
 13 14  1  0     0  0
 14 15  1  0     0  0
  3  4  2  0     0  0
 15 16  1  6     0  0
  5  8  1  0     0  0
 14 17  1  1     0  0
 12 18  1  1     0  0
  9  8  1  1     0  0
 13 19  1  6     0  0
  4  5  1  0     0  0
 18 20  1  0     0  0
M  END
>  <MOLREGNO>
337987

>  <CHEMBLID>
CHEMBL274739

>  <SYNONYMS>


>  <MAX_PHASE>
0

>  <MOLWEIGHT>
286.28

>  <ALOGP>
-.95

>  <PSA>
119.61

>  <HBA>
7

>  <HBD>
5

>  <RO5>
0

>  <RTB>
4

>  <RO3>
N

>  <ACD_MOST_APKA>
12.8

>  <ACD_MOST_BPKA>


>  <ACD_LOGP>
-1.94

>  <ACD_LOGD>
-1.94

>  <AROMATIC_RINGS>
1

>  <HEAVY_ATOMS>
20

>  <QED_WEIGHTED>
.48

>  <HBA_LIPINSKI>
7

>  <HBD_LIPINSKI>
5

>  <NUM_LIPINSKI_RO5_VIOLATIONS>
0

>  <MW_MONOISOTOPIC>
286.1053

>  <MOLECULAR_SPECIES>
NEUTRAL

>  <FULL_MOLFORMULA>
C13H18O7

$$$$

  SciTegic08161218152D

 19 20  0  0  0  0            999 V2000
   10.1237  -11.9996    0.0000 C   0  0  2  0  0  0
   10.8382  -12.4121    0.0000 C   0  0  2  0  0  0
   10.8382  -13.2371    0.0000 C   0  0  1  0  0  0
   10.1237  -13.6496    0.0000 C   0  0  2  0  0  0
    9.4092  -13.2371    0.0000 C   0  0  1  0  0  0
    9.4092  -12.4121    0.0000 O   0  0
    8.6947  -13.6496    0.0000 O   0  0
   11.5526  -13.6496    0.0000 O   0  0
   10.1237  -11.1746    0.0000 C   0  0
   10.8382  -10.7621    0.0000 O   0  0
   10.1237  -14.4746    0.0000 O   0  0
   11.5526  -11.9996    0.0000 O   0  0
    7.9803  -13.2371    0.0000 C   0  0
    7.2658  -13.6496    0.0000 C   0  0
    6.5513  -13.2371    0.0000 C   0  0
    6.5513  -12.4121    0.0000 C   0  0
    7.2658  -11.9996    0.0000 C   0  0
    7.9803  -12.4121    0.0000 C   0  0
    5.8369  -11.9996    0.0000 O   0  0
  2  3  1  0
  9 10  1  0
  3  4  1  0
  4 11  1  1
  4  5  1  0
  2 12  1  1
  5  6  1  0
  7 13  1  0
 13 14  2  0
  5  7  1  6
 14 15  1  0
  1  2  1  0
 15 16  2  0
  3  8  1  6
 16 17  1  0
  1  6  1  0
 17 18  2  0
 18 13  1  0
  1  9  1  6
 16 19  1  0
M  END
>  <MOLREGNO>
395949

>  <CHEMBLID>
CHEMBL232202

>  <SYNONYMS>
Arbutin

>  <MAX_PHASE>
0

>  <MOLWEIGHT>
272.25

>  <ALOGP>
-.58

>  <PSA>
119.61

>  <HBA>
7

>  <HBD>
5

>  <RO5>
0

>  <RTB>
3

>  <RO3>
N

>  <ACD_MOST_APKA>
10.1

>  <ACD_MOST_BPKA>


>  <ACD_LOGP>
-1.35

>  <ACD_LOGD>
-1.35

>  <AROMATIC_RINGS>
1

>  <HEAVY_ATOMS>
19

>  <QED_WEIGHTED>
.5

>  <HBA_LIPINSKI>
7

>  <HBD_LIPINSKI>
5

>  <NUM_LIPINSKI_RO5_VIOLATIONS>
0

>  <MW_MONOISOTOPIC>
272.0896

>  <MOLECULAR_SPECIES>
NEUTRAL

>  <FULL_MOLFORMULA>
C12H16O7

$$$$

          11280714522D 1   1.00000     0.00000     0

 12 12  0     0  0            999 V2000
    1.9292   -3.8542    0.0000 C   0  0  0  0  0  0           0  0  0
    2.6417   -4.2667    0.0000 C   0  0  0  0  0  0           0  0  0
    1.2167   -4.2667    0.0000 C   0  0  0  0  0  0           0  0  0
    1.9250   -3.0292    0.0000 C   0  0  3  0  0  0           0  0  0
    1.9292   -5.5042    0.0000 C   0  0  0  0  0  0           0  0  0
    2.6417   -5.0917    0.0000 C   0  0  0  0  0  0           0  0  0
    1.2167   -5.0917    0.0000 C   0  0  0  0  0  0           0  0  0
    0.4917   -3.0292    0.0000 N   0  0  0  0  0  0           0  0  0
    2.6417   -2.6167    0.0000 O   0  0  0  0  0  0           0  0  0
    1.9292   -6.3292    0.0000 O   0  0  0  0  0  0           0  0  0
    1.2125   -2.6167    0.0000 C   0  0  0  0  0  0           0  0  0
   -0.2208   -2.6250    0.0000 C   0  0  0  0  0  0           0  0  0
  2  1  2  0     0  0
  3  1  1  0     0  0
  4  1  1  0     0  0
  5  7  1  0     0  0
  6  2  1  0     0  0
  7  3  2  0     0  0
  8 11  1  0     0  0
  9  4  1  0     0  0
 10  5  1  0     0  0
 11  4  1  0     0  0
 12  8  1  0     0  0
  5  6  2  0     0  0
M  END
>  <MOLREGNO>
44648

>  <CHEMBLID>
CHEMBL33720

>  <SYNONYMS>
Oxedrine | Synephrine

>  <MAX_PHASE>
0

>  <MOLWEIGHT>
167.21

>  <ALOGP>
.62

>  <PSA>
52.48

>  <HBA>
3

>  <HBD>
3

>  <RO5>
0

>  <RTB>
3

>  <RO3>
Y

>  <ACD_MOST_APKA>
9.98

>  <ACD_MOST_BPKA>
9.37

>  <ACD_LOGP>
.13

>  <ACD_LOGD>
-1.9

>  <AROMATIC_RINGS>
1

>  <HEAVY_ATOMS>
12

>  <QED_WEIGHTED>
.62

>  <HBA_LIPINSKI>
3

>  <HBD_LIPINSKI>
3

>  <NUM_LIPINSKI_RO5_VIOLATIONS>
0

>  <MW_MONOISOTOPIC>
167.0946

>  <MOLECULAR_SPECIES>
BASE

>  <FULL_MOLFORMULA>
C9H13NO2

$$$$

  Mrv0541 04051115152D          

 11 12  0  0  0  0            999 V2000
   -1.1967   -0.3516    0.0000 C   0  0  0  0  0  0  0  0  0  0  0  0
   -1.1967    0.4734    0.0000 C   0  0  0  0  0  0  0  0  0  0  0  0
   -0.4823    0.8859    0.0000 C   0  0  0  0  0  0  0  0  0  0  0  0
    0.2322    0.4734    0.0000 C   0  0  0  0  0  0  0  0  0  0  0  0
    0.9467    0.8859    0.0000 C   0  0  0  0  0  0  0  0  0  0  0  0
    1.6612    0.4734    0.0000 C   0  0  0  0  0  0  0  0  0  0  0  0
    1.6612   -0.3516    0.0000 C   0  0  0  0  0  0  0  0  0  0  0  0
    0.9467   -0.7641    0.0000 C   0  0  0  0  0  0  0  0  0  0  0  0
    0.2322   -0.3516    0.0000 C   0  0  0  0  0  0  0  0  0  0  0  0
   -1.9112   -0.7641    0.0000 O   0  0  0  0  0  0  0  0  0  0  0  0
   -0.4823   -0.7641    0.0000 O   0  0  0  0  0  0  0  0  0  0  0  0
  1  2  1  0  0  0  0
  1 10  2  0  0  0  0
  1 11  1  0  0  0  0
  2  3  2  0  0  0  0
  3  4  1  0  0  0  0
  4  5  2  0  0  0  0
  4  9  1  0  0  0  0
  5  6  1  0  0  0  0
  6  7  2  0  0  0  0
  7  8  1  0  0  0  0
  8  9  2  0  0  0  0
  9 11  1  0  0  0  0
M  END
>  <MOLREGNO>
1256

>  <CHEMBLID>
CHEMBL6466

>  <SYNONYMS>
COUMARIN | 2H-CHROMEN-2-ONE

>  <MAX_PHASE>
3

>  <MOLWEIGHT>
146.14

>  <ALOGP>
1.9

>  <PSA>
26.3

>  <HBA>
2

>  <HBD>
0

>  <RO5>
0

>  <RTB>
0

>  <RO3>
Y

>  <ACD_MOST_APKA>


>  <ACD_MOST_BPKA>


>  <ACD_LOGP>
1.39

>  <ACD_LOGD>
1.39

>  <AROMATIC_RINGS>
1

>  <HEAVY_ATOMS>
11

>  <QED_WEIGHTED>
.41

>  <HBA_LIPINSKI>
2

>  <HBD_LIPINSKI>
0

>  <NUM_LIPINSKI_RO5_VIOLATIONS>
0

>  <MW_MONOISOTOPIC>
146.0368

>  <MOLECULAR_SPECIES>


>  <FULL_MOLFORMULA>
C9H6O2

$$$$

  Mrv0541 04051115152D          

 12 12  0  0  0  0            999 V2000
    0.4667   -1.9280    0.0000 C   0  0  0  0  0  0  0  0  0  0  0  0
    1.1812   -2.3405    0.0000 O   0  0  0  0  0  0  0  0  0  0  0  0
   -0.2478   -2.3405    0.0000 O   0  0  0  0  0  0  0  0  0  0  0  0
    0.4667   -1.1030    0.0000 C   0  0  0  0  0  0  0  0  0  0  0  0
   -0.2478   -0.6905    0.0000 C   0  0  0  0  0  0  0  0  0  0  0  0
   -0.2478    0.1345    0.0000 C   0  0  0  0  0  0  0  0  0  0  0  0
   -0.9622    0.5470    0.0000 C   0  0  0  0  0  0  0  0  0  0  0  0
   -0.9622    1.3720    0.0000 C   0  0  0  0  0  0  0  0  0  0  0  0
   -0.2478    1.7845    0.0000 C   0  0  0  0  0  0  0  0  0  0  0  0
    0.4667    1.3720    0.0000 C   0  0  0  0  0  0  0  0  0  0  0  0
    0.4667    0.5470    0.0000 C   0  0  0  0  0  0  0  0  0  0  0  0
   -0.2478    2.6095    0.0000 O   0  0  0  0  0  0  0  0  0  0  0  0
  1  2  2  0  0  0  0
  1  3  1  0  0  0  0
  1  4  1  0  0  0  0
  4  5  2  0  0  0  0
  6  5  1  0  0  0  0
  6  7  2  0  0  0  0
  6 11  1  0  0  0  0
  7  8  1  0  0  0  0
  8  9  2  0  0  0  0
  9 10  1  0  0  0  0
  9 12  1  0  0  0  0
 10 11  2  0  0  0  0
M  END
>  <MOLREGNO>
107682

>  <CHEMBLID>
CHEMBL66879

>  <SYNONYMS>
P-Coumaric Acid

>  <MAX_PHASE>
0

>  <MOLWEIGHT>
164.16

>  <ALOGP>
1.69

>  <PSA>
57.53

>  <HBA>
3

>  <HBD>
2

>  <RO5>
0

>  <RTB>
2

>  <RO3>
Y

>  <ACD_MOST_APKA>
4.65

>  <ACD_MOST_BPKA>


>  <ACD_LOGP>
1.01

>  <ACD_LOGD>
-2

>  <AROMATIC_RINGS>
1

>  <HEAVY_ATOMS>
12

>  <QED_WEIGHTED>
.65

>  <HBA_LIPINSKI>
3

>  <HBD_LIPINSKI>
2

>  <NUM_LIPINSKI_RO5_VIOLATIONS>
0

>  <MW_MONOISOTOPIC>
164.0473

>  <MOLECULAR_SPECIES>
ACID

>  <FULL_MOLFORMULA>
C9H8O3

$$$$

  SciTegic12231509382D

 25 27  0  0  1  0            999 V2000
    3.5744   -1.6242    0.0000 O   0  0
    4.2950   -3.6659    0.0000 O   0  0
    5.7191   -2.8423    0.0000 O   0  0
    2.1446   -1.6357    0.0000 O   0  0
    3.5744   -4.8840    0.0000 O   0  0
    5.7191   -1.2182    0.0000 O   0  0
    0.7092   -2.4420    0.0000 O   0  0
    0.7092   -4.0777    0.0000 O   0  0
    4.9813    0.0000    0.0000 O   0  0
    3.5744   -2.4420    0.0000 C   0  0  2  0  0  0
    4.2950   -2.8595    0.0000 C   0  0  1  0  0  0
    2.8595   -2.8595    0.0000 C   0  0
    2.8595   -3.6659    0.0000 C   0  0
    5.0099   -2.4420    0.0000 C   0  0  2  0  0  0
    2.1446   -2.4420    0.0000 C   0  0
    3.5744   -4.0777    0.0000 C   0  0
    5.0099   -1.6242    0.0000 C   0  0  1  0  0  0
    4.2950   -1.2182    0.0000 C   0  0  1  0  0  0
    1.4240   -2.8595    0.0000 C   0  0
    2.1446   -4.0777    0.0000 C   0  0
    1.4240   -3.6659    0.0000 C   0  0
    4.2950   -0.4118    0.0000 C   0  0
    0.0000   -2.8538    0.0000 C   0  0
    3.5744   -3.1912    0.0000 H   0  0
    4.2836   -2.1446    0.0000 H   0  0
  1 10  1  0
  1 18  1  0
  2 11  1  0
  2 16  1  0
 14  3  1  6
  4 15  1  0
  5 16  2  0
 17  6  1  1
  7 19  1  0
  7 23  1  0
  8 21  1  0
  9 22  1  0
 10 11  1  0
 10 12  1  0
 10 24  1  1
 11 14  1  0
 11 25  1  6
 12 13  2  0
 12 15  1  0
 13 16  1  0
 13 20  1  0
 14 17  1  0
 15 19  2  0
 17 18  1  0
 18 22  1  6
 19 21  1  0
 20 21  2  0
M  END
>  <MOLREGNO>
439312

>  <CHEMBLID>
CHEMBL273019

>  <SYNONYMS>
BERGENIN

>  <MAX_PHASE>
0

>  <MOLWEIGHT>
328.27

>  <ALOGP>
-.85

>  <PSA>
145.91

>  <HBA>
9

>  <HBD>
5

>  <RO5>
0

>  <RTB>
2

>  <RO3>
N

>  <ACD_MOST_APKA>
13.46

>  <ACD_MOST_BPKA>
1.36

>  <ACD_LOGP>
4.63

>  <ACD_LOGD>
4.63

>  <AROMATIC_RINGS>
1

>  <HEAVY_ATOMS>
23

>  <QED_WEIGHTED>
.44

>  <HBA_LIPINSKI>
9

>  <HBD_LIPINSKI>
5

>  <NUM_LIPINSKI_RO5_VIOLATIONS>
0

>  <MW_MONOISOTOPIC>
328.0794

>  <MOLECULAR_SPECIES>
NEUTRAL

>  <FULL_MOLFORMULA>
C14H16O9

$$$$

  CDK    9/16/09,9:20

 23 25  0  0  0  0  0  0  0  0999 V2000
   -0.9354   -0.1501    0.0000 C   0  0  0  0  0  0  0  0  0  0  0  0
   -0.9140   -0.9723    0.0000 C   0  0  0  0  0  0  0  0  0  0  0  0
   -1.6203   -1.4066    0.0000 C   0  0  0  0  0  0  0  0  0  0  0  0
   -2.3444   -1.0164    0.0000 C   0  0  0  0  0  0  0  0  0  0  0  0
   -3.0472   -1.4486    0.0000 C   0  0  0  0  0  0  0  0  0  0  0  0
   -3.7734   -1.0548    0.0000 C   0  0  0  0  0  0  0  0  0  0  0  0
   -3.7970   -0.2291    0.0000 C   0  0  0  0  0  0  0  0  0  0  0  0
   -3.0943    0.2031    0.0000 C   0  0  0  0  0  0  0  0  0  0  0  0
   -2.3680   -0.1906    0.0000 C   0  0  0  0  0  0  0  0  0  0  0  0
   -1.6618    0.2437    0.0000 O   0  0  0  0  0  0  0  0  0  0  0  0
   -1.5967   -2.2324    0.0000 O   0  0  0  0  0  0  0  0  0  0  0  0
   -0.2327    0.2821    0.0000 C   0  0  0  0  0  0  0  0  0  0  0  0
   -0.2563    1.1078    0.0000 C   0  0  0  0  0  0  0  0  0  0  0  0
    0.4464    1.5400    0.0000 C   0  0  0  0  0  0  0  0  0  0  0  0
    1.1727    1.1463    0.0000 C   0  0  0  0  0  0  0  0  0  0  0  0
    1.1941    0.3240    0.0000 C   0  0  0  0  0  0  0  0  0  0  0  0
    0.4914   -0.1081    0.0000 C   0  0  0  0  0  0  0  0  0  0  0  0
    0.4229    2.3658    0.0000 O   0  0  0  0  0  0  0  0  0  0  0  0
    1.1255    2.7979    0.0000 C   0  0  0  0  0  0  0  0  0  0  0  0
    1.8755    1.5784    0.0000 O   0  0  0  0  0  0  0  0  0  0  0  0
   -4.5234    0.1647    0.0000 O   0  0  0  0  0  0  0  0  0  0  0  0
   -3.0257   -2.2708    0.0000 O   0  0  0  0  0  0  0  0  0  0  0  0
   -0.1877   -1.3660    0.0000 O   0  0  0  0  0  0  0  0  0  0  0  0
  1  2  2  0  0  0  0 
  2  3  1  0  0  0  0 
  3  4  1  0  0  0  0 
  4  5  1  0  0  0  0 
  5  6  2  0  0  0  0 
  6  7  1  0  0  0  0 
  7  8  2  0  0  0  0 
  8  9  1  0  0  0  0 
  4  9  2  0  0  0  0 
  9 10  1  0  0  0  0 
  1 10  1  0  0  0  0 
  3 11  2  0  0  0  0 
 12 13  1  0  0  0  0 
 13 14  2  0  0  0  0 
 14 15  1  0  0  0  0 
 15 16  2  0  0  0  0 
 16 17  1  0  0  0  0 
 12 17  2  0  0  0  0 
 18 19  1  0  0  0  0 
 14 18  1  0  0  0  0 
 15 20  1  0  0  0  0 
  1 12  1  0  0  0  0 
  7 21  1  0  0  0  0 
  5 22  1  0  0  0  0 
  2 23  1  0  0  0  0 
M  END
>  <MOLREGNO>
348850

>  <CHEMBLID>
CHEMBL379064

>  <SYNONYMS>
Isorhamnetine | Isorhamnetin

>  <MAX_PHASE>
0

>  <MOLWEIGHT>
316.26

>  <ALOGP>
1.86

>  <PSA>
116.45

>  <HBA>
7

>  <HBD>
4

>  <RO5>
0

>  <RTB>
2

>  <RO3>
N

>  <ACD_MOST_APKA>
6.31

>  <ACD_MOST_BPKA>


>  <ACD_LOGP>
2.79

>  <ACD_LOGD>
1.42

>  <AROMATIC_RINGS>
2

>  <HEAVY_ATOMS>
23

>  <QED_WEIGHTED>
.67

>  <HBA_LIPINSKI>
7

>  <HBD_LIPINSKI>
4

>  <NUM_LIPINSKI_RO5_VIOLATIONS>
0

>  <MW_MONOISOTOPIC>
316.0583

>  <MOLECULAR_SPECIES>
ACID

>  <FULL_MOLFORMULA>
C16H12O7

$$$$

  SciTegic01161211212D

 21 23  0  0  0  0            999 V2000
    1.2875  -17.5167    0.0000 C   0  0
    2.0000  -17.9250    0.0000 N   0  0
   -3.7125  -17.9458    0.0000 C   0  0
   -3.7125  -18.7750    0.0000 C   0  0
   -4.5000  -17.6875    0.0000 O   0  0
   -4.5000  -19.0292    0.0000 O   0  0
   -4.9875  -18.3583    0.0000 C   0  0
    0.5750  -17.9333    0.0000 C   0  0
   -3.0000  -17.5333    0.0000 C   0  0
    1.2833  -16.6917    0.0000 O   0  0
   -0.1417  -17.5208    0.0000 C   0  0
   -0.8542  -17.9375    0.0000 C   0  0
   -1.5708  -17.5292    0.0000 C   0  0
   -2.9958  -19.1875    0.0000 C   0  0
   -2.2833  -17.9417    0.0000 C   0  0
   -2.2833  -18.7750    0.0000 C   0  0
    2.0042  -18.7500    0.0000 C   0  0
    2.7125  -17.5083    0.0000 C   0  0
    3.4292  -17.9250    0.0000 C   0  0
    2.7167  -19.1625    0.0000 C   0  0
    3.4292  -18.7500    0.0000 C   0  0
  2  1  1  0
  3  9  1  0
  4  3  2  0
  5  3  1  0
  6  4  1  0
  7  5  1  0
  8  1  1  0
  9 15  2  0
 10  1  2  0
 11  8  2  0
 12 11  1  0
 13 12  2  0
 14 16  2  0
 15 13  1  0
 16 15  1  0
 17  2  1  0
 18  2  1  0
 19 18  1  0
 20 17  1  0
 21 19  1  0
 21 20  1  0
 14  4  1  0
  6  7  1  0
M  END
>  <MOLREGNO>
58424

>  <CHEMBLID>
CHEMBL43185

>  <SYNONYMS>
PIPERINE

>  <MAX_PHASE>
1

>  <MOLWEIGHT>
285.34

>  <ALOGP>
2.86

>  <PSA>
38.77

>  <HBA>
3

>  <HBD>
0

>  <RO5>
0

>  <RTB>
3

>  <RO3>
Y

>  <ACD_MOST_APKA>


>  <ACD_MOST_BPKA>


>  <ACD_LOGP>
3.37

>  <ACD_LOGD>
3.37

>  <AROMATIC_RINGS>
1

>  <HEAVY_ATOMS>
21

>  <QED_WEIGHTED>
.63

>  <HBA_LIPINSKI>
4

>  <HBD_LIPINSKI>
0

>  <NUM_LIPINSKI_RO5_VIOLATIONS>
0

>  <MW_MONOISOTOPIC>
285.1365

>  <MOLECULAR_SPECIES>
NEUTRAL

>  <FULL_MOLFORMULA>
C17H19NO3

$$$$

  Mrv0541 05191409142D          

  9  9  0  0  0  0            999 V2000
    2.1654  -11.5438    0.0000 C   0  0  0  0  0  0  0  0  0  0  0  0
    2.1642  -12.3634    0.0000 C   0  0  0  0  0  0  0  0  0  0  0  0
    2.8723  -12.7723    0.0000 N   0  0  0  0  0  0  0  0  0  0  0  0
    3.5819  -12.3629    0.0000 C   0  0  0  0  0  0  0  0  0  0  0  0
    3.5791  -11.5402    0.0000 C   0  0  0  0  0  0  0  0  0  0  0  0
    2.8705  -11.1350    0.0000 C   0  0  0  0  0  0  0  0  0  0  0  0
    4.2853  -11.1290    0.0000 C   0  0  0  0  0  0  0  0  0  0  0  0
    4.9945  -11.5349    0.0000 N   0  0  0  0  0  0  0  0  0  0  0  0
    4.2822  -10.3118    0.0000 O   0  0  0  0  0  0  0  0  0  0  0  0
  1  2  2  0  0  0  0
  2  3  1  0  0  0  0
  3  4  2  0  0  0  0
  4  5  1  0  0  0  0
  5  6  2  0  0  0  0
  6  1  1  0  0  0  0
  5  7  1  0  0  0  0
  7  8  1  0  0  0  0
  7  9  2  0  0  0  0
M  END
>  <MOLREGNO>
175447

>  <CHEMBLID>
CHEMBL1140

>  <SYNONYMS>
Niacinamide | NICOTINAMIDE | NICOTYLAMIDE | NICOTINIC ACID AMIDE

>  <MAX_PHASE>
4

>  <MOLWEIGHT>
122.12

>  <ALOGP>
-.32

>  <PSA>
55.98

>  <HBA>
2

>  <HBD>
1

>  <RO5>
0

>  <RTB>
1

>  <RO3>
Y

>  <ACD_MOST_APKA>
4.67

>  <ACD_MOST_BPKA>
6.91

>  <ACD_LOGP>
.85

>  <ACD_LOGD>
-1.78

>  <AROMATIC_RINGS>
1

>  <HEAVY_ATOMS>
9

>  <QED_WEIGHTED>
.56

>  <HBA_LIPINSKI>
3

>  <HBD_LIPINSKI>
2

>  <NUM_LIPINSKI_RO5_VIOLATIONS>
0

>  <MW_MONOISOTOPIC>
122.048

>  <MOLECULAR_SPECIES>
ACID

>  <FULL_MOLFORMULA>
C6H6N2O

$$$$

  SciTegic01161211232D

 13 13  0  0  0  0            999 V2000
   13.7588   -6.1089    0.0000 O   0  0
   14.4748   -5.6985    0.0000 C   0  0  2  0  0  0
   15.1865   -6.1152    0.0000 C   0  0  2  0  0  0
   15.9003   -5.7084    0.0000 C   0  0  2  0  0  0
   15.9072   -4.8829    0.0000 C   0  0
   15.1940   -4.4658    0.0000 C   0  0  2  0  0  0
   14.4740   -4.8743    0.0000 C   0  0
   15.1816   -6.9404    0.0000 O   0  0
   16.6121   -6.1260    0.0000 O   0  0
   14.4744   -4.0510    0.0000 O   0  0
   15.9039   -4.0468    0.0000 C   0  0
   16.6217   -4.4496    0.0000 O   0  0
   15.8960   -3.2200    0.0000 O   0  0
  5  6  1  0
  6  7  1  0
  2  3  1  0
  3  8  1  6
  4  9  1  6
  2  1  1  1
  6 10  1  6
  2  7  1  0
  6 11  1  0
  3  4  1  0
  4  5  1  0
 11 12  1  0
 11 13  2  0
M  END
>  <MOLREGNO>
484257

>  <CHEMBLID>
CHEMBL444501

>  <SYNONYMS>
(-)-Quinic Acid

>  <MAX_PHASE>
0

>  <MOLWEIGHT>
192.17

>  <ALOGP>
-2.37

>  <PSA>
118.22

>  <HBA>
6

>  <HBD>
5

>  <RO5>
0

>  <RTB>
1

>  <RO3>
N

>  <ACD_MOST_APKA>
4.27

>  <ACD_MOST_BPKA>


>  <ACD_LOGP>
-2.02

>  <ACD_LOGD>
-5.46

>  <AROMATIC_RINGS>
0

>  <HEAVY_ATOMS>
13

>  <QED_WEIGHTED>
.32

>  <HBA_LIPINSKI>
6

>  <HBD_LIPINSKI>
5

>  <NUM_LIPINSKI_RO5_VIOLATIONS>
0

>  <MW_MONOISOTOPIC>
192.0634

>  <MOLECULAR_SPECIES>
ACID

>  <FULL_MOLFORMULA>
C7H12O6

$$$$

  CDK    9/16/09,9:20

 29 32  0  0  0  0  0  0  0  0999 V2000
   -1.5603    0.1458    0.0000 C   0  0  0  0  0  0  0  0  0  0  0  0
   -0.8483    0.5542    0.0000 O   0  0  0  0  0  0  0  0  0  0  0  0
   -0.8483    1.3792    0.0000 C   0  0  0  0  0  0  0  0  0  0  0  0
   -1.5603    1.7958    0.0000 C   0  0  0  0  0  0  0  0  0  0  0  0
   -2.2723    0.5542    0.0000 C   0  0  0  0  0  0  0  0  0  0  0  0
   -2.2723    1.3791    0.0000 C   0  0  0  0  0  0  0  0  0  0  0  0
   -3.0569    1.6341    0.0000 C   0  0  0  0  0  0  0  0  0  0  0  0
   -2.2765    2.2042    0.0000 H   0  0  0  0  0  0  0  0  0  0  0  0
   -2.2765   -0.2708    0.0000 H   0  0  0  0  0  0  0  0  0  0  0  0
   -3.0569    0.2993    0.0000 C   0  0  0  0  0  0  0  0  0  0  0  0
   -3.5447    0.9629    0.0000 C   0  0  0  0  0  0  0  0  0  0  0  0
   -3.8754    0.2087    0.0000 O   0  0  0  0  0  0  0  0  0  0  0  0
   -3.0640   -0.5250    0.0000 C   0  0  0  0  0  0  0  0  0  0  0  0
   -3.7820   -0.9314    0.0000 O   0  0  0  0  0  0  0  0  0  0  0  0
   -4.2640    1.3792    0.0000 H   0  0  0  0  0  0  0  0  0  0  0  0
   -3.3117    2.4188    0.0000 O   0  0  0  0  0  0  0  0  0  0  0  0
   -1.5603   -0.6792    0.0000 O   0  0  0  0  0  0  0  0  0  0  0  0
   -0.8458   -1.0917    0.0000 C   0  0  0  0  0  0  0  0  0  0  0  0
   -0.8458   -1.9167    0.0000 C   0  0  0  0  0  0  0  0  0  0  0  0
   -0.1338   -2.3250    0.0000 C   0  0  0  0  0  0  0  0  0  0  0  0
    0.5782   -1.9167    0.0000 C   0  0  0  0  0  0  0  0  0  0  0  0
    0.5782   -1.0917    0.0000 C   0  0  0  0  0  0  0  0  0  0  0  0
   -0.1338   -0.6750    0.0000 O   0  0  0  0  0  0  0  0  0  0  0  0
   -0.8500   -0.2667    0.0000 H   0  0  0  0  0  0  0  0  0  0  0  0
   -1.5597   -2.3302    0.0000 O   0  0  0  0  0  0  0  0  0  0  0  0
    1.2921   -2.3302    0.0000 O   0  0  0  0  0  0  0  0  0  0  0  0
    1.2939   -0.6813    0.0000 C   0  0  0  0  0  0  0  0  0  0  0  0
   -0.1338   -3.1500    0.0000 O   0  0  0  0  0  0  0  0  0  0  0  0
    2.0071   -1.0959    0.0000 O   0  0  0  0  0  0  0  0  0  0  0  0
  5  1  1  0  0  0  0 
 13 14  1  0  0  0  0 
  6  7  1  0  0  0  0 
 11 15  1  6  0  0  0 
  7 11  1  0  0  0  0 
  7 16  1  1  0  0  0 
 10  5  1  0  0  0  0 
  1 17  1  1  0  0  0 
  1  2  1  0  0  0  0 
 17 18  1  0  0  0  0 
 18 19  1  0  0  0  0 
  6  8  1  1  0  0  0 
  2  3  1  0  0  0  0 
  5  9  1  1  0  0  0 
 11 10  1  0  0  0  0 
 12 11  1  0  0  0  0 
 18 23  1  0  0  0  0 
 19 20  1  0  0  0  0 
 20 21  1  0  0  0  0 
 21 22  1  0  0  0  0 
 22 23  1  0  0  0  0 
 10 12  1  0  0  0  0 
 18 24  1  1  0  0  0 
  3  4  2  0  0  0  0 
 19 25  1  1  0  0  0 
  5  6  1  0  0  0  0 
 21 26  1  1  0  0  0 
 22 27  1  6  0  0  0 
  6  4  1  0  0  0  0 
 20 28  1  6  0  0  0 
 10 13  1  6  0  0  0 
 27 29  1  0  0  0  0 
M  END
>  <MOLREGNO>
482735

>  <CHEMBLID>
CHEMBL513223

>  <SYNONYMS>
Catalpol

>  <MAX_PHASE>
0

>  <MOLWEIGHT>
362.33

>  <ALOGP>
-3.58

>  <PSA>
161.6

>  <HBA>
10

>  <HBD>
6

>  <RO5>
1

>  <RTB>
4

>  <RO3>
N

>  <ACD_MOST_APKA>
12.79

>  <ACD_MOST_BPKA>


>  <ACD_LOGP>
-4.61

>  <ACD_LOGD>
-4.61

>  <AROMATIC_RINGS>
0

>  <HEAVY_ATOMS>
25

>  <QED_WEIGHTED>
.3

>  <HBA_LIPINSKI>
10

>  <HBD_LIPINSKI>
6

>  <NUM_LIPINSKI_RO5_VIOLATIONS>
1

>  <MW_MONOISOTOPIC>
362.1213

>  <MOLECULAR_SPECIES>
NEUTRAL

>  <FULL_MOLFORMULA>
C15H22O10

$$$$

  SciTegic01161211242D

 27 29  0  0  0  0            999 V2000
   -2.5794   -1.1582    0.0000 O   0  0
   -1.8874   -1.5978    0.0000 C   0  0  1  0  0  0
   -1.1566   -1.2151    0.0000 C   0  0  2  0  0  0
   -1.1232   -0.3896    0.0000 O   0  0
   -0.4591   -1.6579    0.0000 C   0  0  1  0  0  0
    0.2717   -1.2752    0.0000 O   0  0
   -0.4925   -2.4833    0.0000 C   0  0  2  0  0  0
    0.2031   -2.9224    0.0000 O   0  0
   -1.2232   -2.8660    0.0000 C   0  0  2  0  0  0
   -1.9208   -2.4232    0.0000 O   0  0
   -1.2585   -3.6878    0.0000 C   0  0
   -1.9893   -4.0705    0.0000 O   0  0
   -2.5794   -0.3333    0.0000 C   0  0  2  0  0  0
   -1.8675    0.0750    0.0000 O   0  0
   -1.8675    0.8999    0.0000 C   0  0
   -2.5794    1.3166    0.0000 C   0  0
   -3.2915    0.0750    0.0000 C   0  0  1  0  0  0
   -3.2914    0.9045    0.0000 C   0  0  2  0  0  0
   -4.0803    1.1609    0.0000 C   0  0  1  0  0  0
   -4.5680    0.4898    0.0000 C   0  0
   -4.0804   -0.1812    0.0000 C   0  0
   -3.2956    1.7332    0.0000 H   0  0
   -3.2956   -0.7499    0.0000 H   0  0
   -2.6081   -2.0040    0.0000 H   0  0
   -4.3352    1.9455    0.0000 O   0  0
   -4.3353   -0.9658    0.0000 C   0  0
   -5.1422   -1.1373    0.0000 O   0  0
  2  3  1  0
  3  4  1  6
 18 16  1  0
 17 13  1  0
 13 14  1  0
 14 15  1  0
 15 16  2  0
 17 18  1  0
  3  5  1  0
  5  6  1  1
  5  7  1  0
  7  8  1  6
  7  9  1  0
 18 19  1  0
 19 20  1  0
 20 21  2  0
 21 17  1  0
  9 10  1  0
 18 22  1  1
  9 11  1  1
 17 23  1  1
 13  1  1  1
 11 12  1  0
  2 24  1  6
  2 10  1  0
 19 25  1  1
 21 26  1  0
  2  1  1  0
 26 27  1  0
M  END
>  <MOLREGNO>
444304

>  <CHEMBLID>
CHEMBL514882

>  <SYNONYMS>
Aucubin

>  <MAX_PHASE>
0

>  <MOLWEIGHT>
346.33

>  <ALOGP>
-2.92

>  <PSA>
149.07

>  <HBA>
9

>  <HBD>
6

>  <RO5>
1

>  <RTB>
4

>  <RO3>
N

>  <ACD_MOST_APKA>
12.8

>  <ACD_MOST_BPKA>


>  <ACD_LOGP>
-4.1

>  <ACD_LOGD>
-4.1

>  <AROMATIC_RINGS>
0

>  <HEAVY_ATOMS>
24

>  <QED_WEIGHTED>
.29

>  <HBA_LIPINSKI>
9

>  <HBD_LIPINSKI>
6

>  <NUM_LIPINSKI_RO5_VIOLATIONS>
1

>  <MW_MONOISOTOPIC>
346.1264

>  <MOLECULAR_SPECIES>
NEUTRAL

>  <FULL_MOLFORMULA>
C15H22O9

$$$$

  SciTegic12231509382D

 31 33  0  0  1  0            999 V2000
   -0.5630   -0.7444    0.0000 O   0  0
   -1.2788   -1.1569    0.0000 C   0  0  1  0  0  0
   -1.2788   -1.9819    0.0000 C   0  0  2  0  0  0
   -0.5630   -2.3944    0.0000 O   0  0
   -1.9947   -2.3944    0.0000 C   0  0  1  0  0  0
   -1.9947   -3.2194    0.0000 O   0  0
   -2.7106   -1.9819    0.0000 C   0  0  2  0  0  0
   -3.4223   -2.3944    0.0000 O   0  0
   -2.7106   -1.1569    0.0000 C   0  0  2  0  0  0
   -1.9947   -0.7444    0.0000 O   0  0
   -3.4223   -0.7444    0.0000 C   0  0
   -3.4223    0.0806    0.0000 O   0  0
   -1.2764    1.3209    0.0000 C   0  0
   -1.2776    0.4935    0.0000 C   0  0
   -0.5628    0.0806    0.0000 C   0  0
    0.1537    0.4940    0.0000 C   0  0
    0.1508    1.3245    0.0000 C   0  0
   -0.5646    1.7336    0.0000 C   0  0
    0.8637    1.7397    0.0000 O   0  0
   -1.9910    1.7332    0.0000 O   0  0
    0.8688    0.0826    0.0000 C   0  0
    0.8701   -0.7424    0.0000 O   0  0
    1.5826    0.4962    0.0000 C   0  0
    2.2977    0.0848    0.0000 C   0  0
    3.0115    0.4985    0.0000 C   0  0
    3.7254    0.0857    0.0000 C   0  0
    4.4387    0.4987    0.0000 C   0  0
    4.4378    1.3245    0.0000 C   0  0
    3.7177    1.7357    0.0000 C   0  0
    3.0073    1.3205    0.0000 C   0  0
    5.1511    1.7391    0.0000 O   0  0
 15 16  2  0
  3  5  1  0
 16 17  1  0
  5  6  1  1
 17 18  2  0
 18 13  1  0
  5  7  1  0
 17 19  1  0
  7  8  1  6
 13 20  1  0
  7  9  1  0
 16 21  1  0
 15  1  1  0
  9 10  1  0
 21 22  2  0
  9 11  1  1
 21 23  1  0
 11 12  1  0
 23 24  1  0
  2 10  1  0
 24 25  1  0
 25 26  2  0
  2  1  1  1
 26 27  1  0
 13 14  2  0
 27 28  2  0
  2  3  1  0
 28 29  1  0
 14 15  1  0
 29 30  2  0
 30 25  1  0
  3  4  1  6
 28 31  1  0
M  END
>  <MOLREGNO>
391232

>  <CHEMBLID>
CHEMBL245067

>  <SYNONYMS>
Phloridzin

>  <MAX_PHASE>
0

>  <MOLWEIGHT>
436.41

>  <ALOGP>
.83

>  <PSA>
177.14

>  <HBA>
10

>  <HBD>
7

>  <RO5>
1

>  <RTB>
7

>  <RO3>
N

>  <ACD_MOST_APKA>
12.59

>  <ACD_MOST_BPKA>
5.33

>  <ACD_LOGP>
1.77

>  <ACD_LOGD>
1.76

>  <AROMATIC_RINGS>
2

>  <HEAVY_ATOMS>
31

>  <QED_WEIGHTED>
.31

>  <HBA_LIPINSKI>
10

>  <HBD_LIPINSKI>
7

>  <NUM_LIPINSKI_RO5_VIOLATIONS>
1

>  <MW_MONOISOTOPIC>
436.1369

>  <MOLECULAR_SPECIES>
NEUTRAL

>  <FULL_MOLFORMULA>
C21H24O10

$$$$

  Mrv0541 04051115152D          

 20 21  0  0  0  0            999 V2000
    3.6483   -2.4545    0.0000 C   0  0  0  0  0  0  0  0  0  0  0  0
    3.6483   -3.2795    0.0000 C   0  0  0  0  0  0  0  0  0  0  0  0
    2.9339   -3.6920    0.0000 C   0  0  0  0  0  0  0  0  0  0  0  0
    2.2194   -3.2795    0.0000 C   0  0  0  0  0  0  0  0  0  0  0  0
    2.2194   -2.4545    0.0000 C   0  0  0  0  0  0  0  0  0  0  0  0
    2.9339   -2.0420    0.0000 C   0  0  0  0  0  0  0  0  0  0  0  0
    1.5049   -2.0420    0.0000 C   0  0  0  0  0  0  0  0  0  0  0  0
    1.5049   -1.2170    0.0000 C   0  0  0  0  0  0  0  0  0  0  0  0
    0.7905   -0.8045    0.0000 C   0  0  0  0  0  0  0  0  0  0  0  0
    2.9339   -1.2170    0.0000 O   0  0  0  0  0  0  0  0  0  0  0  0
    0.7905   -2.4545    0.0000 O   0  0  0  0  0  0  0  0  0  0  0  0
    0.7905    0.0205    0.0000 C   0  0  0  0  0  0  0  0  0  0  0  0
    0.0760    0.4330    0.0000 C   0  0  0  0  0  0  0  0  0  0  0  0
    0.0760    1.2580    0.0000 C   0  0  0  0  0  0  0  0  0  0  0  0
    0.7905    1.6705    0.0000 C   0  0  0  0  0  0  0  0  0  0  0  0
    1.5049    1.2580    0.0000 C   0  0  0  0  0  0  0  0  0  0  0  0
    1.5049    0.4330    0.0000 C   0  0  0  0  0  0  0  0  0  0  0  0
    0.7905    2.4955    0.0000 O   0  0  0  0  0  0  0  0  0  0  0  0
    4.3628   -3.6920    0.0000 O   0  0  0  0  0  0  0  0  0  0  0  0
    1.5049   -3.6920    0.0000 O   0  0  0  0  0  0  0  0  0  0  0  0
  1  2  2  0  0  0  0
  2  3  1  0  0  0  0
  3  4  2  0  0  0  0
  4  5  1  0  0  0  0
  5  6  2  0  0  0  0
  1  6  1  0  0  0  0
  5  7  1  0  0  0  0
  7  8  1  0  0  0  0
  8  9  1  0  0  0  0
  6 10  1  0  0  0  0
  7 11  2  0  0  0  0
 12  9  1  0  0  0  0
 12 13  1  0  0  0  0
 13 14  2  0  0  0  0
 14 15  1  0  0  0  0
 15 16  2  0  0  0  0
 12 17  2  0  0  0  0
 16 17  1  0  0  0  0
 15 18  1  0  0  0  0
  2 19  1  0  0  0  0
  4 20  1  0  0  0  0
M  END
>  <MOLREGNO>
69541

>  <CHEMBLID>
CHEMBL45068

>  <SYNONYMS>
2',4,4',6'-Tetrahydroxy-Dihydrochalcone | Phloretin | 2',4,4',6'-Tetrahydroxydihydrochalcone

>  <MAX_PHASE>
0

>  <MOLWEIGHT>
274.27

>  <ALOGP>
2.76

>  <PSA>
97.99

>  <HBA>
5

>  <HBD>
4

>  <RO5>
0

>  <RTB>
4

>  <RO3>
N

>  <ACD_MOST_APKA>
7.16

>  <ACD_MOST_BPKA>


>  <ACD_LOGP>
2.51

>  <ACD_LOGD>
1.98

>  <AROMATIC_RINGS>
2

>  <HEAVY_ATOMS>
20

>  <QED_WEIGHTED>
.64

>  <HBA_LIPINSKI>
5

>  <HBD_LIPINSKI>
4

>  <NUM_LIPINSKI_RO5_VIOLATIONS>
0

>  <MW_MONOISOTOPIC>
274.0841

>  <MOLECULAR_SPECIES>
NEUTRAL

>  <FULL_MOLFORMULA>
C15H14O5

$$$$

  CDK    9/16/09,9:54

 27 29  0  0  0  0  0  0  0  0999 V2000
    7.7475   -5.6079    0.0000 C   0  0  0  0  0  0  0  0  0  0  0  0
    7.7475   -6.4372    0.0000 C   0  0  0  0  0  0  0  0  0  0  0  0
    9.1805   -5.6079    0.0000 C   0  0  0  0  0  0  0  0  0  0  0  0
    8.4618   -5.1910    0.0000 O   0  0  0  0  0  0  0  0  0  0  0  0
    9.1805   -6.4372    0.0000 C   0  0  0  0  0  0  0  0  0  0  0  0
    8.4597   -6.8461    0.0000 C   0  0  0  0  0  0  0  0  0  0  0  0
    8.4535   -7.6701    0.0000 C   0  0  0  0  0  0  0  0  0  0  0  0
    9.1662   -8.0916    0.0000 C   0  0  0  0  0  0  0  0  0  0  0  0
    9.8870   -7.6828    0.0000 O   0  0  0  0  0  0  0  0  0  0  0  0
    9.8950   -6.8525    0.0000 C   0  0  0  0  0  0  0  0  0  0  0  0
    9.8951   -5.1964    0.0000 O   0  0  0  0  0  0  0  0  0  0  0  0
    9.1587   -8.9162    0.0000 O   0  0  0  0  0  0  0  0  0  0  0  0
    7.7355   -8.0760    0.0000 C   0  0  0  0  0  0  0  0  0  0  0  0
    7.0251   -7.6571    0.0000 C   0  0  0  0  0  0  0  0  0  0  0  0
    8.4408   -9.3221    0.0000 C   0  0  0  0  0  0  0  0  0  0  0  0
    7.7300   -8.8990    0.0000 O   0  0  0  0  0  0  0  0  0  0  0  0
    7.0143   -9.3015    0.0000 C   0  0  0  0  0  0  0  0  0  0  0  0
    7.0026  -10.1264    0.0000 C   0  0  0  0  0  0  0  0  0  0  0  0
    7.7129  -10.5474    0.0000 C   0  0  0  0  0  0  0  0  0  0  0  0
    8.4349  -10.1434    0.0000 C   0  0  0  0  0  0  0  0  0  0  0  0
    9.1447  -10.5631    0.0000 O   0  0  0  0  0  0  0  0  0  0  0  0
    7.7026  -11.3720    0.0000 O   0  0  0  0  0  0  0  0  0  0  0  0
    6.2832  -10.5296    0.0000 O   0  0  0  0  0  0  0  0  0  0  0  0
    6.3054   -8.8800    0.0000 C   0  0  0  0  0  0  0  0  0  0  0  0
    5.5859   -9.2831    0.0000 O   0  0  0  0  0  0  0  0  0  0  0  0
    8.4348   -8.4944    0.0000 H   0  0  0  0  0  0  0  0  0  0  0  0
    7.7430   -7.2527    0.0000 O   0  0  0  0  0  0  0  0  0  0  0  0
  7 13  1  6  0  0  0 
  1  4  1  0  0  0  0 
 13 14  2  0  0  0  0 
  2  6  1  0  0  0  0 
 12 15  1  0  0  0  0 
 15 16  1  0  0  0  0 
  5  3  1  0  0  0  0 
  3  4  1  0  0  0  0 
  5 10  2  0  0  0  0 
  6  7  1  0  0  0  0 
  7  8  1  0  0  0  0 
 15 20  1  0  0  0  0 
 16 17  1  0  0  0  0 
 17 18  1  0  0  0  0 
 18 19  1  0  0  0  0 
 19 20  1  0  0  0  0 
  8  9  1  0  0  0  0 
 20 21  1  6  0  0  0 
  9 10  1  0  0  0  0 
 19 22  1  1  0  0  0 
  5  6  1  0  0  0  0 
 18 23  1  6  0  0  0 
  3 11  2  0  0  0  0 
 17 24  1  1  0  0  0 
 24 25  1  0  0  0  0 
  8 12  1  1  0  0  0 
 15 26  1  6  0  0  0 
  1  2  1  0  0  0  0 
  6 27  1  1  0  0  0 
M  END
>  <MOLREGNO>
512596

>  <CHEMBLID>
CHEMBL456138

>  <SYNONYMS>


>  <MAX_PHASE>
0

>  <MOLWEIGHT>
374.34

>  <ALOGP>
-2.38

>  <PSA>
155.14

>  <HBA>
10

>  <HBD>
5

>  <RO5>
0

>  <RTB>
4

>  <RO3>
N

>  <ACD_MOST_APKA>
11.56

>  <ACD_MOST_BPKA>


>  <ACD_LOGP>
-3.4

>  <ACD_LOGD>
-3.4

>  <AROMATIC_RINGS>
0

>  <HEAVY_ATOMS>
26

>  <QED_WEIGHTED>
.27

>  <HBA_LIPINSKI>
10

>  <HBD_LIPINSKI>
5

>  <NUM_LIPINSKI_RO5_VIOLATIONS>
0

>  <MW_MONOISOTOPIC>
374.1213

>  <MOLECULAR_SPECIES>
NEUTRAL

>  <FULL_MOLFORMULA>
C16H22O10

$$$$

  CDK    5/12/10,14:52

 38 41  0  0  0  0  0  0  0  0999 V2000
    2.5403   -4.7968    0.0000 O   0  0  0  0  0  0  0  0  0  0  0  0
    1.8226   -4.3880    0.0000 C   0  0  0  0  0  0  0  0  0  0  0  0
    1.1093   -4.8023    0.0000 C   0  0  0  0  0  0  0  0  0  0  0  0
    1.1113   -5.6273    0.0000 O   0  0  0  0  0  0  0  0  0  0  0  0
    0.3938   -4.3916    0.0000 C   0  0  0  0  0  0  0  0  0  0  0  0
   -0.3195   -4.8059    0.0000 O   0  0  0  0  0  0  0  0  0  0  0  0
    0.3916   -3.5667    0.0000 C   0  0  0  0  0  0  0  0  0  0  0  0
    1.1051   -3.1524    0.0000 C   0  0  0  0  0  0  0  0  0  0  0  0
    1.8206   -3.5631    0.0000 O   0  0  0  0  0  0  0  0  0  0  0  0
    1.1030   -2.3275    0.0000 C   0  0  0  0  0  0  0  0  0  0  0  0
    1.8163   -1.9132    0.0000 O   0  0  0  0  0  0  0  0  0  0  0  0
   -0.3257   -3.1567    0.0000 O   0  0  0  0  0  0  0  0  0  0  0  0
    5.3952   -4.7952    0.0000 C   0  0  0  0  0  0  0  0  0  0  0  0
    5.3929   -5.6201    0.0000 C   0  0  0  0  0  0  0  0  0  0  0  0
    4.6742   -6.0269    0.0000 C   0  0  0  0  0  0  0  0  0  0  0  0
    4.6716   -6.8510    0.0000 C   0  0  0  0  0  0  0  0  0  0  0  0
    5.3854   -7.2664    0.0000 C   0  0  0  0  0  0  0  0  0  0  0  0
    6.1033   -6.8514    0.0000 C   0  0  0  0  0  0  0  0  0  0  0  0
    6.1025   -6.0287    0.0000 C   0  0  0  0  0  0  0  0  0  0  0  0
    6.8181   -7.2634    0.0000 O   0  0  0  0  0  0  0  0  0  0  0  0
    6.8187   -8.0884    0.0000 C   0  0  0  0  0  0  0  0  0  0  0  0
    5.3842   -8.0914    0.0000 O   0  0  0  0  0  0  0  0  0  0  0  0
    3.2563   -3.5575    0.0000 C   0  0  0  0  0  0  0  0  0  0  0  0
    3.2551   -4.3848    0.0000 C   0  0  0  0  0  0  0  0  0  0  0  0
    3.9700   -4.7976    0.0000 C   0  0  0  0  0  0  0  0  0  0  0  0
    3.9682   -3.1447    0.0000 C   0  0  0  0  0  0  0  0  0  0  0  0
    4.6834   -3.5539    0.0000 C   0  0  0  0  0  0  0  0  0  0  0  0
    4.6823   -4.3822    0.0000 C   0  0  0  0  0  0  0  0  0  0  0  0
    5.3976   -3.1383    0.0000 C   0  0  0  0  0  0  0  0  0  0  0  0
    2.5418   -3.1452    0.0000 O   0  0  0  0  0  0  0  0  0  0  0  0
    2.5416   -2.3203    0.0000 C   0  0  0  0  0  0  0  0  0  0  0  0
    6.1150   -3.5559    0.0000 C   0  0  0  0  0  0  0  0  0  0  0  0
    6.1132   -4.3811    0.0000 C   0  0  0  0  0  0  0  0  0  0  0  0
    6.8976   -4.6379    0.0000 C   0  0  0  0  0  0  0  0  0  0  0  0
    7.3843   -3.9712    0.0000 O   0  0  0  0  0  0  0  0  0  0  0  0
    6.9005   -3.3026    0.0000 C   0  0  0  0  0  0  0  0  0  0  0  0
    4.6692   -8.5027    0.0000 C   0  0  0  0  0  0  0  0  0  0  0  0
    7.1571   -2.5185    0.0000 O   0  0  0  0  0  0  0  0  0  0  0  0
  8  9  1  0  0  0  0 
  8 10  1  1  0  0  0 
 10 11  1  0  0  0  0 
  2  9  1  0  0  0  0 
  7 12  1  6  0  0  0 
  2  1  1  1  0  0  0 
  2  3  1  0  0  0  0 
  3  4  1  6  0  0  0 
  3  5  1  0  0  0  0 
  5  6  1  1  0  0  0 
  5  7  1  0  0  0  0 
  7  8  1  0  0  0  0 
 19 14  1  0  0  0  0 
 18 20  1  0  0  0  0 
 20 21  1  0  0  0  0 
 17 22  1  0  0  0  0 
 33 13  1  6  0  0  0 
 23 24  2  0  0  0  0 
 24 25  1  0  0  0  0 
 25 28  2  0  0  0  0 
 27 26  2  0  0  0  0 
 26 23  1  0  0  0  0 
 27 28  1  0  0  0  0 
 13 14  1  0  0  0  0 
 27 29  1  0  0  0  0 
 32 29  1  1  0  0  0 
 14 15  2  0  0  0  0 
 23 30  1  0  0  0  0 
 30 31  1  0  0  0  0 
 32 33  1  0  0  0  0 
 15 16  1  0  0  0  0 
 16 17  2  0  0  0  0 
 17 18  1  0  0  0  0 
 33 34  1  0  0  0  0 
 34 35  1  0  0  0  0 
 35 36  1  0  0  0  0 
 36 32  1  0  0  0  0 
 22 37  1  0  0  0  0 
 18 19  2  0  0  0  0 
 36 38  2  0  0  0  0 
 24  1  1  0  0  0  0 
M  END
>  <MOLREGNO>
395183

>  <CHEMBLID>
CHEMBL388452

>  <SYNONYMS>
Arctiin

>  <MAX_PHASE>
0

>  <MOLWEIGHT>
534.55

>  <ALOGP>
1.81

>  <PSA>
153.37

>  <HBA>
11

>  <HBD>
4

>  <RO5>
2

>  <RTB>
10

>  <RO3>
N

>  <ACD_MOST_APKA>
12.83

>  <ACD_MOST_BPKA>


>  <ACD_LOGP>
-.56

>  <ACD_LOGD>
-.56

>  <AROMATIC_RINGS>
2

>  <HEAVY_ATOMS>
38

>  <QED_WEIGHTED>
.33

>  <HBA_LIPINSKI>
11

>  <HBD_LIPINSKI>
4

>  <NUM_LIPINSKI_RO5_VIOLATIONS>
1

>  <MW_MONOISOTOPIC>
534.2101

>  <MOLECULAR_SPECIES>
NEUTRAL

>  <FULL_MOLFORMULA>
C27H34O11

$$$$

  CDK    5/12/10,14:52

 27 29  0  0  0  0  0  0  0  0999 V2000
   -4.3014  -16.2291    0.0000 C   0  0  0  0  0  0  0  0  0  0  0  0
   -4.3026  -17.0565    0.0000 C   0  0  0  0  0  0  0  0  0  0  0  0
   -3.5878  -17.4694    0.0000 C   0  0  0  0  0  0  0  0  0  0  0  0
   -2.8713  -17.0560    0.0000 C   0  0  0  0  0  0  0  0  0  0  0  0
   -2.8742  -16.2255    0.0000 C   0  0  0  0  0  0  0  0  0  0  0  0
   -3.5896  -15.8164    0.0000 C   0  0  0  0  0  0  0  0  0  0  0  0
   -2.1613  -15.8103    0.0000 C   0  0  0  0  0  0  0  0  0  0  0  0
   -1.4446  -16.2199    0.0000 C   0  0  0  0  0  0  0  0  0  0  0  0
   -1.1899  -17.0039    0.0000 C   0  0  0  0  0  0  0  0  0  0  0  0
   -0.3649  -17.0077    0.0000 C   0  0  0  0  0  0  0  0  0  0  0  0
   -0.1063  -16.2242    0.0000 O   0  0  0  0  0  0  0  0  0  0  0  0
   -0.7715  -15.7364    0.0000 C   0  0  0  0  0  0  0  0  0  0  0  0
   -1.6763  -17.6702    0.0000 C   0  0  0  0  0  0  0  0  0  0  0  0
   -1.3420  -18.4242    0.0000 C   0  0  0  0  0  0  0  0  0  0  0  0
   -1.7263  -19.1510    0.0000 C   0  0  0  0  0  0  0  0  0  0  0  0
   -1.2866  -19.8482    0.0000 C   0  0  0  0  0  0  0  0  0  0  0  0
   -0.4614  -19.8160    0.0000 C   0  0  0  0  0  0  0  0  0  0  0  0
   -0.0778  -19.0807    0.0000 C   0  0  0  0  0  0  0  0  0  0  0  0
   -0.5198  -18.3866    0.0000 C   0  0  0  0  0  0  0  0  0  0  0  0
    0.7464  -19.0452    0.0000 O   0  0  0  0  0  0  0  0  0  0  0  0
    1.1893  -19.7412    0.0000 C   0  0  0  0  0  0  0  0  0  0  0  0
   -0.0200  -20.5130    0.0000 O   0  0  0  0  0  0  0  0  0  0  0  0
   -5.0160  -15.8168    0.0000 O   0  0  0  0  0  0  0  0  0  0  0  0
   -5.0162  -14.9918    0.0000 C   0  0  0  0  0  0  0  0  0  0  0  0
   -5.0174  -17.4684    0.0000 O   0  0  0  0  0  0  0  0  0  0  0  0
   -0.7675  -14.9114    0.0000 O   0  0  0  0  0  0  0  0  0  0  0  0
   -0.4029  -21.2437    0.0000 C   0  0  0  0  0  0  0  0  0  0  0  0
  9 13  1  6  0  0  0 
  1  2  2  0  0  0  0 
 13 14  1  0  0  0  0 
  5  7  1  0  0  0  0 
 14 15  2  0  0  0  0 
  3  4  2  0  0  0  0 
 15 16  1  0  0  0  0 
  8  7  1  1  0  0  0 
 16 17  2  0  0  0  0 
  8  9  1  0  0  0  0 
 17 18  1  0  0  0  0 
 18 19  2  0  0  0  0 
 19 14  1  0  0  0  0 
  4  5  1  0  0  0  0 
 18 20  1  0  0  0  0 
  2  3  1  0  0  0  0 
 20 21  1  0  0  0  0 
  5  6  2  0  0  0  0 
 17 22  1  0  0  0  0 
  9 10  1  0  0  0  0 
  1 23  1  0  0  0  0 
 10 11  1  0  0  0  0 
 23 24  1  0  0  0  0 
 11 12  1  0  0  0  0 
  2 25  1  0  0  0  0 
 12  8  1  0  0  0  0 
 12 26  2  0  0  0  0 
  6  1  1  0  0  0  0 
 22 27  1  0  0  0  0 
M  END
>  <MOLREGNO>
291051

>  <CHEMBLID>
CHEMBL435734

>  <SYNONYMS>
Arctigenin | (-)-Arctigenin

>  <MAX_PHASE>
0

>  <MOLWEIGHT>
372.41

>  <ALOGP>
3.74

>  <PSA>
74.22

>  <HBA>
6

>  <HBD>
1

>  <RO5>
0

>  <RTB>
7

>  <RO3>
N

>  <ACD_MOST_APKA>
10.03

>  <ACD_MOST_BPKA>


>  <ACD_LOGP>
1.91

>  <ACD_LOGD>
1.91

>  <AROMATIC_RINGS>
2

>  <HEAVY_ATOMS>
27

>  <QED_WEIGHTED>
.75

>  <HBA_LIPINSKI>
6

>  <HBD_LIPINSKI>
1

>  <NUM_LIPINSKI_RO5_VIOLATIONS>
0

>  <MW_MONOISOTOPIC>
372.1573

>  <MOLECULAR_SPECIES>
NEUTRAL

>  <FULL_MOLFORMULA>
C21H24O6

$$$$

  SciTegic12231509382D

 37 41  0  0  0  0            999 V2000
   23.8300  -16.3835    0.0000 C   0  0  1  0  0  0
   23.1136  -16.7875    0.0000 C   0  0  1  0  0  0
   21.6893  -16.7833    0.0000 C   0  0  2  0  0  0
   25.2626  -15.5839    0.0000 C   0  0  1  0  0  0
   24.5546  -15.1591    0.0000 C   0  0  1  0  0  0
   23.8425  -15.5631    0.0000 C   0  0  1  0  0  0
   22.4015  -16.3710    0.0000 C   0  0  1  0  0  0
   21.6810  -17.6079    0.0000 C   0  0  2  0  0  0
   20.9772  -18.0202    0.0000 C   0  0
   24.7420  -14.3554    0.0000 C   0  0  1  0  0  0
   25.9747  -15.9879    0.0000 C   0  0
   24.5296  -16.8083    0.0000 C   0  0
   23.1136  -17.6121    0.0000 C   0  0
   25.2501  -16.4044    0.0000 C   0  0
   25.8790  -15.0384    0.0000 C   0  0
   23.1303  -15.1383    0.0000 C   0  0
   20.9772  -16.3627    0.0000 C   0  0
   22.4057  -15.5464    0.0000 C   0  0
   22.3932  -18.0244    0.0000 C   0  0
   25.5624  -14.2846    0.0000 C   0  0
   24.2006  -13.7307    0.0000 C   0  0
   20.2567  -17.6079    0.0000 C   0  0  2  0  0  0
   26.6911  -15.5756    0.0000 O   0  0
   20.2567  -16.7833    0.0000 C   0  0
   24.4672  -12.9519    0.0000 C   0  0
   23.8175  -17.2081    0.0000 C   0  0
   25.9789  -16.8125    0.0000 O   0  0
   23.1053  -15.9629    0.0000 C   0  0
   21.6810  -15.9504    0.0000 C   0  0
   20.5483  -18.7324    0.0000 C   0  0
   21.3812  -18.7324    0.0000 C   0  0
   19.5446  -18.0244    0.0000 O   0  0
   23.3885  -13.8973    0.0000 C   0  0
   21.6768  -18.4325    0.0000 H   0  0
   24.5504  -15.9837    0.0000 H   0  0
   22.3932  -17.1956    0.0000 H   0  0
   23.8383  -14.7261    0.0000 H   0  0
  9  8  1  0
 10  5  1  0
  4 11  1  1
 12  1  1  0
 13  2  1  0
 14 12  1  0
 15  4  1  0
 16  6  1  0
 17  3  1  0
 18 16  1  0
 19 13  1  0
 20 10  1  0
 10 21  1  6
 22  9  1  0
 23 11  2  0
 24 17  1  0
 25 21  2  0
  1 26  1  6
 27 11  1  0
  2 28  1  1
  3 29  1  1
 30  9  1  0
 31  9  1  0
 22 32  1  1
 33 21  1  0
  8 34  1  6
  5 35  1  6
  7 36  1  6
  6 37  1  1
  5  4  1  0
  7 18  1  0
 15 20  1  0
  3  8  1  0
 24 22  1  0
  2  1  1  0
  3  7  1  0
  4 14  1  0
  5  6  1  0
  6  1  1  0
  7  2  1  0
  8 19  1  0
M  END
>  <MOLREGNO>
1763

>  <CHEMBLID>
CHEMBL269277

>  <SYNONYMS>
Betulinic Acid Glutaryl Hemi Ester | BETULINIC ACID

>  <MAX_PHASE>
0

>  <MOLWEIGHT>
456.7

>  <ALOGP>
6.55

>  <PSA>
57.53

>  <HBA>
3

>  <HBD>
2

>  <RO5>
1

>  <RTB>
2

>  <RO3>
N

>  <ACD_MOST_APKA>
4.61

>  <ACD_MOST_BPKA>


>  <ACD_LOGP>
7.65

>  <ACD_LOGD>
4.91

>  <AROMATIC_RINGS>
0

>  <HEAVY_ATOMS>
33

>  <QED_WEIGHTED>
.46

>  <HBA_LIPINSKI>
3

>  <HBD_LIPINSKI>
2

>  <NUM_LIPINSKI_RO5_VIOLATIONS>
1

>  <MW_MONOISOTOPIC>
456.3603

>  <MOLECULAR_SPECIES>
ACID

>  <FULL_MOLFORMULA>
C30H48O3

$$$$

  SciTegic06231514502D

 36 40  0  0  0  0            999 V2000
   -5.6222   -0.8403    0.0000 C   0  0
   -5.6222   -1.6653    0.0000 C   0  0  1  0  0  0
   -4.9098   -2.0778    0.0000 C   0  0
   -4.9098   -0.4226    0.0000 C   0  0
   -4.1975   -0.8403    0.0000 C   0  0  1  0  0  0
   -4.1966   -1.6653    0.0000 C   0  0  1  0  0  0
   -3.4882   -2.0786    0.0000 C   0  0
   -2.7700   -1.6726    0.0000 C   0  0
   -3.4797   -0.4236    0.0000 C   0  0  2  0  0  0
   -2.7705   -0.8457    0.0000 C   0  0  2  0  0  0
   -2.7549    0.8048    0.0000 C   0  0
   -3.4783    0.3981    0.0000 C   0  0
   -2.0406    0.3828    0.0000 C   0  0  1  0  0  0
   -2.0576   -0.4427    0.0000 C   0  0  1  0  0  0
   -1.3543   -0.8647    0.0000 C   0  0
   -0.6338   -0.4669    0.0000 C   0  0
   -1.3256    0.7811    0.0000 C   0  0  2  0  0  0
   -0.6222    0.3591    0.0000 C   0  0  2  0  0  0
   -0.0018    0.8959    0.0000 C   0  0
   -0.3181    1.6507    0.0000 C   0  0
   -1.1374    1.5824    0.0000 C   0  0  1  0  0  0
   -4.2014   -0.0101    0.0000 C   0  0
   -2.7806   -0.0204    0.0000 C   0  0
   -2.0625   -1.2629    0.0000 C   0  0
    0.0865   -0.0510    0.0000 C   0  0
    0.8025    0.3606    0.0000 O   0  0
   -1.6790    2.2084    0.0000 C   0  0
   -1.4082    2.9925    0.0000 C   0  0
   -2.4913    2.0554    0.0000 C   0  0
   -5.3319   -2.7907    0.0000 C   0  0
   -4.5069   -2.7907    0.0000 C   0  0
   -6.3420   -2.0790    0.0000 O   0  0
   -4.2065   -2.4903    0.0000 H   0  0
   -3.4885   -1.2528    0.0000 H   0  0
   -1.3343   -0.0458    0.0000 H   0  0
   -2.0472    1.2171    0.0000 H   0  0
 16 18  1  0
 17 18  1  0
  6  7  1  0
  7  8  1  0
  8 10  1  0
  9 10  1  0
  3  6  1  0
 18 19  1  0
 19 20  1  0
 20 21  1  0
 21 17  1  0
  5  4  1  0
  5 22  1  1
  5  6  1  0
 10 23  1  1
 14 24  1  6
  9 12  1  0
 18 25  1  1
 10 14  1  0
 25 26  1  0
 13 11  1  0
 21 27  1  6
 11 12  1  0
 27 28  2  0
 13 14  1  0
 27 29  1  0
  1  2  1  0
  3 30  1  0
  1  4  1  0
  3 31  1  0
  2  3  1  0
  2 32  1  1
  5  9  1  0
  6 33  1  6
 13 17  1  0
  9 34  1  6
 14 15  1  0
 17 35  1  6
 15 16  1  0
 13 36  1  1
M  END
>  <MOLREGNO>
30884

>  <CHEMBLID>
CHEMBL23236

>  <SYNONYMS>
Betulin

>  <MAX_PHASE>
0

>  <MOLWEIGHT>
442.72

>  <ALOGP>
6.31

>  <PSA>
40.46

>  <HBA>
2

>  <HBD>
2

>  <RO5>
1

>  <RTB>
2

>  <RO3>
N

>  <ACD_MOST_APKA>


>  <ACD_MOST_BPKA>


>  <ACD_LOGP>
8.61

>  <ACD_LOGD>
8.61

>  <AROMATIC_RINGS>
0

>  <HEAVY_ATOMS>
32

>  <QED_WEIGHTED>
.49

>  <HBA_LIPINSKI>
2

>  <HBD_LIPINSKI>
2

>  <NUM_LIPINSKI_RO5_VIOLATIONS>
1

>  <MW_MONOISOTOPIC>
442.3811

>  <MOLECULAR_SPECIES>
NEUTRAL

>  <FULL_MOLFORMULA>
C30H50O2

$$$$

  SciTegic01161211242D

 36 40  0  0  0  0            999 V2000
   -5.7750  -11.9014    0.0000 C   0  0
   -5.7750  -12.7264    0.0000 C   0  0  1  0  0  0
   -5.0626  -13.1389    0.0000 C   0  0
   -5.0626  -11.4837    0.0000 C   0  0
   -4.3503  -11.9014    0.0000 C   0  0  1  0  0  0
   -4.3494  -12.7264    0.0000 C   0  0  1  0  0  0
   -3.6410  -13.1397    0.0000 C   0  0
   -2.9228  -12.7337    0.0000 C   0  0
   -3.6324  -11.4847    0.0000 C   0  0  2  0  0  0
   -2.9233  -11.9068    0.0000 C   0  0  2  0  0  0
   -2.9077  -10.2563    0.0000 C   0  0
   -3.6311  -10.6630    0.0000 C   0  0
   -2.1934  -10.6783    0.0000 C   0  0  1  0  0  0
   -2.2104  -11.5038    0.0000 C   0  0  1  0  0  0
   -1.5071  -11.9258    0.0000 C   0  0
   -0.7866  -11.5280    0.0000 C   0  0
   -1.4784  -10.2800    0.0000 C   0  0  2  0  0  0
   -0.7750  -10.7020    0.0000 C   0  0  2  0  0  0
   -0.1546  -10.1652    0.0000 C   0  0
   -0.4709   -9.4104    0.0000 C   0  0
   -1.2902   -9.4787    0.0000 C   0  0  1  0  0  0
   -4.3542  -11.0712    0.0000 C   0  0
   -2.9333  -11.0815    0.0000 C   0  0
   -2.2153  -12.3240    0.0000 C   0  0
   -0.0662  -11.1121    0.0000 C   0  0
   -1.8317   -8.8527    0.0000 C   0  0
   -1.5610   -8.0686    0.0000 C   0  0
   -2.6440   -9.0057    0.0000 C   0  0
   -5.4847  -13.8518    0.0000 C   0  0
   -4.6597  -13.8518    0.0000 C   0  0
   -6.4948  -13.1401    0.0000 O   0  0
   -4.3593  -13.5514    0.0000 H   0  0
   -3.6412  -12.3139    0.0000 H   0  0
   -1.4871  -11.1069    0.0000 H   0  0
   -2.2000   -9.8440    0.0000 H   0  0
   -0.0669  -11.9421    0.0000 O   0  0
 16 18  1  0
 17 18  1  0
  6  7  1  0
  7  8  1  0
  8 10  1  0
  9 10  1  0
  3  6  1  0
 18 19  1  0
 19 20  1  0
 20 21  1  0
 21 17  1  0
  5  4  1  0
  5 22  1  1
  5  6  1  0
 10 23  1  1
 14 24  1  6
  9 12  1  0
 18 25  1  1
 10 14  1  0
 21 26  1  6
 13 11  1  0
 26 27  2  0
 11 12  1  0
 26 28  1  0
 13 14  1  0
  3 29  1  0
  1  2  1  0
  3 30  1  0
  1  4  1  0
  2 31  1  1
  2  3  1  0
  6 32  1  6
  5  9  1  0
  9 33  1  6
 13 17  1  0
 17 34  1  6
 14 15  1  0
 13 35  1  1
 15 16  1  0
 25 36  2  0
M  END
>  <MOLREGNO>
464563

>  <CHEMBLID>
CHEMBL512622

>  <SYNONYMS>
Betulin Aldehyde | Betulinaldehyde

>  <MAX_PHASE>
0

>  <MOLWEIGHT>
440.7

>  <ALOGP>
6.57

>  <PSA>
37.29

>  <HBA>
2

>  <HBD>
1

>  <RO5>
1

>  <RTB>
2

>  <RO3>
N

>  <ACD_MOST_APKA>


>  <ACD_MOST_BPKA>


>  <ACD_LOGP>
8.6

>  <ACD_LOGD>
8.6

>  <AROMATIC_RINGS>
0

>  <HEAVY_ATOMS>
32

>  <QED_WEIGHTED>
.39

>  <HBA_LIPINSKI>
2

>  <HBD_LIPINSKI>
1

>  <NUM_LIPINSKI_RO5_VIOLATIONS>
1

>  <MW_MONOISOTOPIC>
440.3654

>  <MOLECULAR_SPECIES>
NEUTRAL

>  <FULL_MOLFORMULA>
C30H48O2

$$$$

  CDK    9/16/09,9:20

 33 36  0  0  0  0  0  0  0  0999 V2000
   -1.6478   -1.7239    0.0000 O   0  0  0  0  0  0  0  0  0  0  0  0
   -2.3628    0.3368    0.0000 O   0  0  0  0  0  0  0  0  0  0  0  0
   -3.7889   -0.4858    0.0000 O   0  0  0  0  0  0  0  0  0  0  0  0
   -3.7889   -2.1352    0.0000 O   0  0  0  0  0  0  0  0  0  0  0  0
   -3.0779   -3.3733    0.0000 O   0  0  0  0  0  0  0  0  0  0  0  0
   -0.2176   -1.7239    0.0000 O   0  0  0  0  0  0  0  0  0  0  0  0
   -1.6478    0.7482    0.0000 O   0  0  0  0  0  0  0  0  0  0  0  0
    1.2318    0.7783    0.0000 O   0  0  0  0  0  0  0  0  0  0  0  0
    1.2246   -1.7539    0.0000 O   0  0  0  0  0  0  0  0  0  0  0  0
    4.8345    0.3665    0.0000 O   0  0  0  0  0  0  0  0  0  0  0  0
    4.8310    2.0159    0.0000 O   0  0  0  0  0  0  0  0  0  0  0  0
   -2.3628   -0.4858    0.0000 C   0  0  0  0  0  0  0  0  0  0  0  0
   -3.0779   -0.9012    0.0000 C   0  0  0  0  0  0  0  0  0  0  0  0
   -1.6478   -0.9012    0.0000 C   0  0  0  0  0  0  0  0  0  0  0  0
   -3.0779   -1.7239    0.0000 C   0  0  0  0  0  0  0  0  0  0  0  0
   -2.3628   -2.1352    0.0000 C   0  0  0  0  0  0  0  0  0  0  0  0
   -0.9327   -0.4858    0.0000 C   0  0  0  0  0  0  0  0  0  0  0  0
   -2.3628   -2.9620    0.0000 C   0  0  0  0  0  0  0  0  0  0  0  0
   -0.2176   -0.9012    0.0000 C   0  0  0  0  0  0  0  0  0  0  0  0
   -0.9327    0.3368    0.0000 C   0  0  0  0  0  0  0  0  0  0  0  0
    0.4934   -0.4858    0.0000 C   0  0  0  0  0  0  0  0  0  0  0  0
   -0.2176    0.7482    0.0000 C   0  0  0  0  0  0  0  0  0  0  0  0
    0.4934    0.3368    0.0000 C   0  0  0  0  0  0  0  0  0  0  0  0
    1.2318   -0.9272    0.0000 C   0  0  0  0  0  0  0  0  0  0  0  0
    1.9782    0.3533    0.0000 C   0  0  0  0  0  0  0  0  0  0  0  0
    1.9782   -0.5063    0.0000 C   0  0  0  0  0  0  0  0  0  0  0  0
    2.6915    0.7679    0.0000 C   0  0  0  0  0  0  0  0  0  0  0  0
    3.4084    0.3599    0.0000 C   0  0  0  0  0  0  0  0  0  0  0  0
    2.6876    1.5947    0.0000 C   0  0  0  0  0  0  0  0  0  0  0  0
    4.1215    0.7745    0.0000 C   0  0  0  0  0  0  0  0  0  0  0  0
    3.4008    2.0093    0.0000 C   0  0  0  0  0  0  0  0  0  0  0  0
    4.1178    1.6012    0.0000 C   0  0  0  0  0  0  0  0  0  0  0  0
   -1.6478   -0.2390    0.0000 H   0  0  0  0  0  0  0  0  0  0  0  0
  1 14  1  0  0  0  0 
  1 16  1  0  0  0  0 
 12  2  1  1  0  0  0 
 13  3  1  6  0  0  0 
 15  4  1  1  0  0  0 
  5 18  1  0  0  0  0 
  6 19  1  0  0  0  0 
  7 20  1  0  0  0  0 
  8 23  1  0  0  0  0 
  8 25  1  0  0  0  0 
  9 24  2  0  0  0  0 
 10 30  1  0  0  0  0 
 11 32  1  0  0  0  0 
 12 13  1  0  0  0  0 
 12 14  1  0  0  0  0 
 13 15  1  0  0  0  0 
 14 17  1  0  0  0  0 
 14 33  1  1  0  0  0 
 15 16  1  0  0  0  0 
 16 18  1  6  0  0  0 
 17 19  2  0  0  0  0 
 17 20  1  0  0  0  0 
 19 21  1  0  0  0  0 
 20 22  2  0  0  0  0 
 21 23  2  0  0  0  0 
 21 24  1  0  0  0  0 
 22 23  1  0  0  0  0 
 24 26  1  0  0  0  0 
 25 26  2  0  0  0  0 
 25 27  1  0  0  0  0 
 27 28  2  0  0  0  0 
 27 29  1  0  0  0  0 
 28 30  1  0  0  0  0 
 29 31  2  0  0  0  0 
 30 32  2  0  0  0  0 
 31 32  1  0  0  0  0 
M  END
>  <MOLREGNO>
409999

>  <CHEMBLID>
CHEMBL239559

>  <SYNONYMS>
Isoorientin

>  <MAX_PHASE>
0

>  <MOLWEIGHT>
448.38

>  <ALOGP>
-.22

>  <PSA>
197.36

>  <HBA>
11

>  <HBD>
8

>  <RO5>
2

>  <RTB>
3

>  <RO3>
N

>  <ACD_MOST_APKA>
5.9

>  <ACD_MOST_BPKA>


>  <ACD_LOGP>
.91

>  <ACD_LOGD>
-1.02

>  <AROMATIC_RINGS>
2

>  <HEAVY_ATOMS>
32

>  <QED_WEIGHTED>
.29

>  <HBA_LIPINSKI>
11

>  <HBD_LIPINSKI>
8

>  <NUM_LIPINSKI_RO5_VIOLATIONS>
2

>  <MW_MONOISOTOPIC>
448.1006

>  <MOLECULAR_SPECIES>
ACID

>  <FULL_MOLFORMULA>
C21H20O11

$$$$

  SciTegic01161211272D

 32 35  0  0  0  0            999 V2000
    5.2167   -5.5250    0.0000 C   0  0
    5.9333   -5.9375    0.0000 C   0  0
    5.9333   -6.7625    0.0000 C   0  0
    5.2167   -4.7000    0.0000 C   0  0  2  0  0  0
    6.6667   -5.5000    0.0000 O   0  0
    6.6667   -7.2083    0.0000 C   0  0
    5.9333   -4.2875    0.0000 O   0  0
    7.4167   -5.9250    0.0000 C   0  0
    4.5042   -4.2875    0.0000 C   0  0  1  0  0  0
    7.4167   -6.7833    0.0000 C   0  0
    4.5042   -3.4625    0.0000 C   0  0  2  0  0  0
    4.5042   -5.9375    0.0000 C   0  0
    5.2167   -7.1750    0.0000 C   0  0
    5.2167   -3.0500    0.0000 C   0  0  1  0  0  0
    5.9333   -3.4625    0.0000 C   0  0  1  0  0  0
    4.5042   -6.7625    0.0000 C   0  0
    8.1292   -5.5083    0.0000 C   0  0
    8.1208   -4.6792    0.0000 C   0  0
    8.8417   -4.2625    0.0000 C   0  0
    6.6583   -8.0333    0.0000 O   0  0
    9.5542   -4.6750    0.0000 C   0  0
    8.8458   -5.9125    0.0000 C   0  0
    9.5583   -5.5000    0.0000 C   0  0
    3.7833   -4.7000    0.0000 O   0  0
    3.7833   -3.0500    0.0000 O   0  0
    3.7833   -5.5250    0.0000 O   0  0
    5.2167   -8.0000    0.0000 O   0  0
    5.2167   -2.2250    0.0000 O   0  0
    8.8333   -3.4375    0.0000 O   0  0
    6.6458   -3.0500    0.0000 C   0  0
   10.2667   -4.2625    0.0000 O   0  0
    6.6458   -2.2250    0.0000 O   0  0
  2  1  1  0
  3  2  2  0
  4  1  1  1
  5  2  1  0
  6  3  1  0
  7  4  1  0
  8  5  1  0
  9  4  1  0
 10  8  2  0
 11  9  1  0
 12  1  2  0
 13 16  2  0
 14 11  1  0
 15  7  1  0
 16 12  1  0
 17  8  1  0
 18 17  2  0
 19 18  1  0
 20  6  2  0
 21 23  1  0
 22 17  1  0
 23 22  2  0
  9 24  1  6
 11 25  1  1
 26 12  1  0
 27 13  1  0
 14 28  1  6
 29 19  1  0
 15 30  1  1
 31 21  1  0
 32 30  1  0
  3 13  1  0
 14 15  1  0
  6 10  1  0
 19 21  2  0
M  END
>  <MOLREGNO>
445860

>  <CHEMBLID>
CHEMBL520866

>  <SYNONYMS>
NSC-133101

>  <MAX_PHASE>
0

>  <MOLWEIGHT>
448.38

>  <ALOGP>
-.22

>  <PSA>
197.36

>  <HBA>
11

>  <HBD>
8

>  <RO5>
2

>  <RTB>
3

>  <RO3>
N

>  <ACD_MOST_APKA>
6.24

>  <ACD_MOST_BPKA>


>  <ACD_LOGP>
.55

>  <ACD_LOGD>
-1

>  <AROMATIC_RINGS>
2

>  <HEAVY_ATOMS>
32

>  <QED_WEIGHTED>
.29

>  <HBA_LIPINSKI>
11

>  <HBD_LIPINSKI>
8

>  <NUM_LIPINSKI_RO5_VIOLATIONS>
2

>  <MW_MONOISOTOPIC>
448.1006

>  <MOLECULAR_SPECIES>
ACID

>  <FULL_MOLFORMULA>
C21H20O11

$$$$

  CDK    9/16/09,9:20

 43 46  0  0  0  0  0  0  0  0999 V2000
    1.7212   -6.4368    0.0000 C   0  0  0  0  0  0  0  0  0  0  0  0
    1.6937   -7.2613    0.0000 C   0  0  0  0  0  0  0  0  0  0  0  0
    2.3918   -7.6931    0.0000 C   0  0  0  0  0  0  0  0  0  0  0  0
    2.4467   -6.0440    0.0000 C   0  0  0  0  0  0  0  0  0  0  0  0
    0.9665   -7.6508    0.0000 O   0  0  0  0  0  0  0  0  0  0  0  0
    1.0196   -6.0027    0.0000 O   0  0  0  0  0  0  0  0  0  0  0  0
    1.9479   -8.3912    0.0000 C   0  0  0  0  0  0  0  0  0  0  0  0
    2.7725   -8.4187    0.0000 C   0  0  0  0  0  0  0  0  0  0  0  0
    3.1445   -6.4842    0.0000 C   0  0  0  0  0  0  0  0  0  0  0  0
    3.1180   -7.3087    0.0000 C   0  0  0  0  0  0  0  0  0  0  0  0
    3.8151   -7.7415    0.0000 C   0  0  0  0  0  0  0  0  0  0  0  0
    4.5429   -7.3544    0.0000 C   0  0  0  0  0  0  0  0  0  0  0  0
    3.8679   -6.0923    0.0000 C   0  0  0  0  0  0  0  0  0  0  0  0
    4.5688   -6.5344    0.0000 C   0  0  0  0  0  0  0  0  0  0  0  0
    4.6318   -4.8812    0.0000 C   0  0  0  0  0  0  0  0  0  0  0  0
    3.8962   -5.2665    0.0000 C   0  0  0  0  0  0  0  0  0  0  0  0
    5.3327   -5.3233    0.0000 C   0  0  0  0  0  0  0  0  0  0  0  0
    5.2971   -6.1474    0.0000 C   0  0  0  0  0  0  0  0  0  0  0  0
    6.0699   -6.4360    0.0000 C   0  0  0  0  0  0  0  0  0  0  0  0
    6.5832   -5.7901    0.0000 C   0  0  0  0  0  0  0  0  0  0  0  0
    6.1260   -5.1034    0.0000 C   0  0  0  0  0  0  0  0  0  0  0  0
    7.4075   -5.8256    0.0000 O   0  0  0  0  0  0  0  0  0  0  0  0
    5.2637   -6.9717    0.0000 C   0  0  0  0  0  0  0  0  0  0  0  0
    3.8356   -6.9157    0.0000 C   0  0  0  0  0  0  0  0  0  0  0  0
    6.5451   -4.3892    0.0000 C   0  0  0  0  0  0  0  0  0  0  0  0
    6.9363   -3.6627    0.0000 C   0  0  0  0  0  0  0  0  0  0  0  0
    6.5028   -2.9608    0.0000 O   0  0  0  0  0  0  0  0  0  0  0  0
    7.7609   -3.6383    0.0000 C   0  0  0  0  0  0  0  0  0  0  0  0
    8.1521   -2.9118    0.0000 C   0  0  0  0  0  0  0  0  0  0  0  0
    8.9767   -2.8873    0.0000 C   0  0  0  0  0  0  0  0  0  0  0  0
    9.7953   -2.8688    0.0000 O   0  0  0  0  0  0  0  0  0  0  0  0
   10.2238   -3.5737    0.0000 C   0  0  0  0  0  0  0  0  0  0  0  0
   11.0487   -3.5549    0.0000 C   0  0  0  0  0  0  0  0  0  0  0  0
    9.8277   -4.2974    0.0000 O   0  0  0  0  0  0  0  0  0  0  0  0
    8.9550   -2.0626    0.0000 C   0  0  0  0  0  0  0  0  0  0  0  0
    9.0046   -3.7119    0.0000 C   0  0  0  0  0  0  0  0  0  0  0  0
    3.1978   -4.8273    0.0000 O   0  0  0  0  0  0  0  0  0  0  0  0
    7.3351   -4.8313    0.0000 O   0  0  0  0  0  0  0  0  0  0  0  0
    5.9929   -3.9402    0.0000 C   0  0  0  0  0  0  0  0  0  0  0  0
    6.9500   -5.1000    0.0000 H   0  0  0  0  0  0  0  0  0  0  0  0
    5.3250   -4.4958    0.0000 C   0  0  0  0  0  0  0  0  0  0  0  0
    4.5625   -5.7083    0.0000 H   0  0  0  0  0  0  0  0  0  0  0  0
    3.1646   -5.6594    0.0000 H   0  0  0  0  0  0  0  0  0  0  0  0
 19 20  1  0  0  0  0 
 20 21  1  0  0  0  0 
 21 17  1  0  0  0  0 
 20 22  1  6  0  0  0 
  2  5  2  0  0  0  0 
 18 23  1  6  0  0  0 
  9 13  1  0  0  0  0 
 13 24  1  1  0  0  0 
 10 11  2  0  0  0  0 
 11 12  1  0  0  0  0 
 21 25  1  0  0  0  0 
 12 14  1  0  0  0  0 
 25 26  1  0  0  0  0 
 13 14  1  0  0  0  0 
 26 27  2  0  0  0  0 
  1  2  1  0  0  0  0 
 26 28  1  0  0  0  0 
  1  6  1  1  0  0  0 
 28 29  2  0  0  0  0 
  1  4  1  0  0  0  0 
 29 30  1  0  0  0  0 
  3  7  1  0  0  0  0 
 30 31  1  0  0  0  0 
 13 16  1  0  0  0  0 
 31 32  1  0  0  0  0 
 14 18  1  0  0  0  0 
 32 33  1  0  0  0  0 
 17 15  1  0  0  0  0 
 32 34  2  0  0  0  0 
 15 16  1  0  0  0  0 
 30 35  1  0  0  0  0 
 17 18  1  0  0  0  0 
 30 36  1  0  0  0  0 
  2  3  1  0  0  0  0 
 16 37  2  0  0  0  0 
  3  8  1  0  0  0  0 
  9 43  1  1  0  0  0 
  9 10  1  0  0  0  0 
 25 38  1  1  0  0  0 
  3 10  1  0  0  0  0 
 25 39  1  0  0  0  0 
 21 40  1  6  0  0  0 
  9  4  1  0  0  0  0 
 17 41  1  1  0  0  0 
 18 19  1  0  0  0  0 
 14 42  1  1  0  0  0 
M  END
>  <MOLREGNO>
445910

>  <CHEMBLID>
CHEMBL507237

>  <SYNONYMS>
CUCURBITACIN B

>  <MAX_PHASE>
0

>  <MOLWEIGHT>
558.7

>  <ALOGP>
2.31

>  <PSA>
138.19

>  <HBA>
8

>  <HBD>
3

>  <RO5>
1

>  <RTB>
6

>  <RO3>
N

>  <ACD_MOST_APKA>
12.6

>  <ACD_MOST_BPKA>


>  <ACD_LOGP>
1.23

>  <ACD_LOGD>
1.23

>  <AROMATIC_RINGS>
0

>  <HEAVY_ATOMS>
40

>  <QED_WEIGHTED>
.26

>  <HBA_LIPINSKI>
8

>  <HBD_LIPINSKI>
3

>  <NUM_LIPINSKI_RO5_VIOLATIONS>
0

>  <MW_MONOISOTOPIC>
558.3193

>  <MOLECULAR_SPECIES>
NEUTRAL

>  <FULL_MOLFORMULA>
C32H46O8

$$$$

  SciTegic01161211232D

 43 46  0  0  0  0            999 V2000
    4.2715  -11.0920    0.0000 C   0  0
    4.2715  -11.9128    0.0000 C   0  0
    4.9822  -12.3252    0.0000 C   0  0
    4.9848  -10.6844    0.0000 C   0  0
    5.6953  -11.0898    0.0000 C   0  0  2  0  0  0
    5.6946  -11.9096    0.0000 C   0  0
    6.4064  -12.3225    0.0000 C   0  0
    7.1140  -11.9114    0.0000 C   0  0
    6.4052  -10.6798    0.0000 C   0  0  1  0  0  0
    7.1140  -11.0900    0.0000 C   0  0  2  0  0  0
    7.1177   -9.4358    0.0000 C   0  0
    6.4052   -9.8496    0.0000 C   0  0
    7.8401   -9.8554    0.0000 C   0  0  1  0  0  0
    7.8244  -10.6841    0.0000 C   0  0  1  0  0  0
    8.6066  -10.9464    0.0000 C   0  0
    9.0983  -10.3518    0.0000 C   0  0  2  0  0  0
    8.6191   -9.6149    0.0000 C   0  0  2  0  0  0
    3.5633  -12.3285    0.0000 O   0  0
    4.4539  -12.9545    0.0000 C   0  0
    5.5114  -12.9539    0.0000 C   0  0
    5.6927   -9.4382    0.0000 O   0  0
    9.9197  -10.3518    0.0000 O   0  0
    5.6881  -10.2436    0.0000 H   0  0
    6.3991  -11.5209    0.0000 C   0  0
    7.1058  -10.2436    0.0000 H   0  0
    7.8339   -9.0090    0.0000 C   0  0
    7.8168  -11.5252    0.0000 C   0  0
    8.9061   -8.8222    0.0000 C   0  0  1  0  0  0
    9.7360   -8.6744    0.0000 C   0  0
    8.1702   -8.4001    0.0000 C   0  0
    8.8982   -7.9786    0.0000 O   0  0
   10.0230   -7.8818    0.0000 C   0  0
   10.2790   -9.3193    0.0000 O   0  0
   10.8529   -7.7339    0.0000 C   0  0
   11.1399   -6.9413    0.0000 C   0  0
   10.5969   -6.2965    0.0000 O   0  0
   10.8839   -5.5039    0.0000 C   0  0
   10.3410   -4.8590    0.0000 C   0  0
   11.7139   -5.3561    0.0000 O   0  0
   11.5549   -6.2075    0.0000 C   0  0
   11.7337   -7.5358    0.0000 C   0  0
    9.4305   -9.8306    0.0000 H   0  0
    3.5579  -10.6779    0.0000 O   0  0
  3 20  1  0
 12 21  2  0
  1  2  1  0
  1  4  2  0
  2  3  1  0
 16 22  1  6
  5 23  1  6
  3  6  1  0
  9 24  1  1
  5  4  1  0
 10 25  1  1
  5  6  1  0
 13 26  1  1
  5  9  1  0
 14 27  1  6
  6  7  2  0
 17 28  1  0
  7  8  1  0
 28 29  1  0
  8 10  1  0
 28 30  1  0
  9 10  1  0
 28 31  1  1
  9 12  1  0
 29 32  1  0
 10 14  1  0
 29 33  2  0
 13 11  1  0
 32 34  2  0
 11 12  1  0
 34 35  1  0
 13 14  1  0
 35 36  1  0
 14 15  1  0
 36 37  1  0
 15 16  1  0
 37 38  1  0
 16 17  1  0
 37 39  2  0
 17 13  1  0
 35 40  1  0
  2 18  2  0
 35 41  1  0
  3 19  1  0
 17 42  1  6
  1 43  1  0
M  END
>  <MOLREGNO>
443904

>  <CHEMBLID>
CHEMBL455056

>  <SYNONYMS>
Cucurbitacin E

>  <MAX_PHASE>
0

>  <MOLWEIGHT>
556.69

>  <ALOGP>
2.54

>  <PSA>
138.2

>  <HBA>
8

>  <HBD>
3

>  <RO5>
1

>  <RTB>
6

>  <RO3>
N

>  <ACD_MOST_APKA>
8.51

>  <ACD_MOST_BPKA>


>  <ACD_LOGP>
2.59

>  <ACD_LOGD>
2.56

>  <AROMATIC_RINGS>
0

>  <HEAVY_ATOMS>
40

>  <QED_WEIGHTED>
.26

>  <HBA_LIPINSKI>
8

>  <HBD_LIPINSKI>
3

>  <NUM_LIPINSKI_RO5_VIOLATIONS>
0

>  <MW_MONOISOTOPIC>
556.3036

>  <MOLECULAR_SPECIES>
NEUTRAL

>  <FULL_MOLFORMULA>
C32H44O8

$$$$

  SciTegic01161211232D

 31 33  0  0  0  0            999 V2000
   -1.3208  -12.0375    0.0000 C   0  0
   -2.0333  -11.6250    0.0000 C   0  0
   -2.7500  -12.0375    0.0000 C   0  0
   -0.6083  -11.6250    0.0000 C   0  0
   -3.4625  -11.6250    0.0000 C   0  0
   -1.3208  -12.8625    0.0000 C   0  0
   -2.7500  -12.8625    0.0000 C   0  0
   -2.0333  -13.2750    0.0000 O   0  0
   -4.1792  -12.0375    0.0000 C   0  0
   -0.6083  -13.2750    0.0000 C   0  0
   -3.4625  -13.2750    0.0000 C   0  0
   -4.1792  -12.8625    0.0000 C   0  0
   -3.4625  -10.8000    0.0000 C   0  0
   -2.7500  -10.3875    0.0000 C   0  0
   -2.0333  -10.8000    0.0000 O   0  0
   -2.7500   -9.5583    0.0000 C   0  0
   -0.6083  -10.8000    0.0000 O   0  0
   -4.9000  -11.6250    0.0000 O   0  0
   -4.9000  -13.2833    0.0000 O   0  0
   -3.4667   -9.1458    0.0000 C   0  0
   -2.0375   -9.1458    0.0000 C   0  0
   -5.6125  -12.0417    0.0000 C   0  0
    0.1125  -12.0413    0.0000 C   0  0
    0.1083  -12.8625    0.0000 C   0  0
    0.8312  -13.2875    0.0000 O   0  0
    1.5460  -10.3916    0.0000 C   0  0
    0.8335  -10.8037    0.0000 C   0  0
    0.8311  -11.6283    0.0000 C   0  0
    1.5458   -9.5583    0.0000 C   0  0
    2.2625  -10.8000    0.0000 C   0  0
   -2.7542   -8.7333    0.0000 O   0  0
  9  5  1  0
 24 10  2  0
 10  6  1  0
 11  7  2  0
 12 11  1  0
 13  5  1  0
 14 13  1  0
 15  2  2  0
 16 14  1  0
 17  4  1  0
 18  9  1  0
 19 12  1  0
 20 16  1  0
 21 16  1  0
 22 18  1  0
  3  7  1  0
  9 12  2  0
 23 24  1  0
  2  1  1  0
  3  2  1  0
  4  1  1  0
  5  3  2  0
  6  1  2  0
 23 28  1  0
 24 25  1  0
 26 27  2  0
 27 28  1  0
  7  8  1  0
 26 29  1  0
 23  4  2  0
 26 30  1  0
  8  6  1  0
 16 31  1  0
M  END
>  <MOLREGNO>
462949

>  <CHEMBLID>
CHEMBL462879

>  <SYNONYMS>
Garcinone D

>  <MAX_PHASE>
0

>  <MOLWEIGHT>
428.47

>  <ALOGP>
4.83

>  <PSA>
116.45

>  <HBA>
7

>  <HBD>
4

>  <RO5>
0

>  <RTB>
6

>  <RO3>
N

>  <ACD_MOST_APKA>
7.22

>  <ACD_MOST_BPKA>


>  <ACD_LOGP>
5.01

>  <ACD_LOGD>
4.21

>  <AROMATIC_RINGS>
2

>  <HEAVY_ATOMS>
31

>  <QED_WEIGHTED>
.49

>  <HBA_LIPINSKI>
7

>  <HBD_LIPINSKI>
4

>  <NUM_LIPINSKI_RO5_VIOLATIONS>
0

>  <MW_MONOISOTOPIC>
428.1835

>  <MOLECULAR_SPECIES>
NEUTRAL

>  <FULL_MOLFORMULA>
C24H28O7

$$$$

  SciTegic01161211262D

101111  0  0  0  0            999 V2000
    3.7498   -3.6600    0.0000 O   0  0
   11.6649   -9.1185    0.0000 C   0  0  1  0  0  0
   11.6728   -9.9435    0.0000 C   0  0  2  0  0  0
   12.3926  -10.3491    0.0000 O   0  0
   10.9610  -10.3628    0.0000 C   0  0  2  0  0  0
   10.9689  -11.1878    0.0000 O   0  0
   10.2453   -9.9572    0.0000 C   0  0  2  0  0  0
    9.5335  -10.3765    0.0000 O   0  0
   10.2374   -9.1322    0.0000 C   0  0  2  0  0  0
   10.9451   -8.7129    0.0000 O   0  0
    9.5176   -8.7266    0.0000 C   0  0
   12.3752   -8.6989    0.0000 O   0  0
   12.3008   -5.3972    0.0000 O   0  0
   12.3199   -6.2232    0.0000 C   0  0  2  0  0  0
   13.0441   -6.6184    0.0000 C   0  0  2  0  0  0
   13.7491   -6.1876    0.0000 O   0  0
   13.0633   -7.4444    0.0000 C   0  0  2  0  0  0
   13.7874   -7.8396    0.0000 O   0  0
   12.3602   -7.8715    0.0000 C   0  0  1  0  0  0
   11.6361   -7.4763    0.0000 C   0  0  2  0  0  0
   11.6149   -6.6539    0.0000 O   0  0
   10.9310   -7.9070    0.0000 C   0  0
   10.1900   -2.4881    0.0000 O   0  0
   10.9003   -2.9101    0.0000 C   0  0  2  0  0  0
   11.6196   -2.5060    0.0000 C   0  0  2  0  0  0
   11.6285   -1.6798    0.0000 O   0  0
   12.3299   -2.9280    0.0000 C   0  0  2  0  0  0
   13.0491   -2.5239    0.0000 O   0  0
   12.3189   -3.7506    0.0000 C   0  0  2  0  0  0
   13.0292   -4.1726    0.0000 O   0  0
   11.5997   -4.1547    0.0000 C   0  0  2  0  0  0
   10.8914   -3.7363    0.0000 O   0  0
   11.5907   -4.9808    0.0000 C   0  0
    4.4694   -2.4248    0.0000 C   0  0
    4.4656   -3.2498    0.0000 C   0  0  2  0  0  0
    5.1757   -3.6614    0.0000 C   0  0  2  0  0  0
    5.1834   -2.0115    0.0000 C   0  0
    5.8935   -2.4314    0.0000 C   0  0  1  0  0  0
    5.8861   -3.2564    0.0000 C   0  0  1  0  0  0
    6.5929   -3.6729    0.0000 C   0  0
    7.3116   -3.2691    0.0000 C   0  0
    6.6077   -2.0230    0.0000 C   0  0  2  0  0  0
    7.3190   -2.4490    0.0000 C   0  0  2  0  0  0
    7.3438   -0.7938    0.0000 C   0  0
    6.6169   -1.1962    0.0000 C   0  0
    8.0551   -1.2198    0.0000 C   0  0
    8.0377   -2.0499    0.0000 C   0  0  2  0  0  0
    8.7440   -2.4777    0.0000 C   0  0
    9.4722   -2.0800    0.0000 C   0  0
    8.7788   -0.8174    0.0000 C   0  0  2  0  0  0
    9.4907   -1.2533    0.0000 C   0  0  2  0  0  0
   10.2201   -0.8570    0.0000 C   0  0
   10.2440   -0.0231    0.0000 C   0  0
    9.5321    0.4128    0.0000 C   0  0
    8.7963    0.0149    0.0000 C   0  0
    4.7520   -4.3720    0.0000 C   0  0
    5.5770   -4.3758    0.0000 C   0  0
    5.8899   -1.6064    0.0000 C   0  0
    7.3149   -1.6214    0.0000 C   0  0
    8.0257   -2.8747    0.0000 C   0  0
    6.5967   -2.8472    0.0000 H   0  0
    9.1153    1.1327    0.0000 C   0  0
    9.9403    1.1289    0.0000 C   0  0
    5.8742   -4.0772    0.0000 H   0  0
    8.7690   -1.6407    0.0000 H   0  0
   10.1980   -1.6682    0.0000 C   0  0
   10.9132   -1.2618    0.0000 O   0  0
   13.0796   -8.2733    0.0000 H   0  0
   10.2065   -7.5124    0.0000 O   0  0
    3.0367   -3.2452    0.0000 C   0  0  1  0  0  0
    2.3207   -3.6696    0.0000 C   0  0  2  0  0  0
    2.3268   -4.4958    0.0000 O   0  0
    1.6030   -3.2606    0.0000 C   0  0  2  0  0  0
    0.8912   -3.6777    0.0000 O   0  0
    1.5989   -2.4379    0.0000 C   0  0  2  0  0  0
    0.8812   -2.0289    0.0000 O   0  0
    2.3107   -2.0208    0.0000 C   0  0
    3.0265   -2.4263    0.0000 O   0  0
    3.0292   -4.0667    0.0000 H   0  0
    1.6154   -4.9135    0.0000 C   0  0  2  0  0  0
    0.9006   -4.5019    0.0000 O   0  0
    0.1913   -4.9161    0.0000 C   0  0  2  0  0  0
    0.1931   -5.7414    0.0000 C   0  0  2  0  0  0
    0.9104   -6.1509    0.0000 C   0  0  2  0  0  0
    1.6260   -5.7350    0.0000 C   0  0  2  0  0  0
    2.3436   -6.1418    0.0000 O   0  0
    0.9137   -6.9759    0.0000 O   0  0
   -0.5199   -6.1565    0.0000 O   0  0
   -0.5246   -4.5061    0.0000 C   0  0
    0.2008   -7.3912    0.0000 C   0  0  2  0  0  0
   -0.5135   -6.9845    0.0000 O   0  0
   -1.2241   -7.3963    0.0000 C   0  0
   -1.2252   -8.2216    0.0000 C   0  0  2  0  0  0
   -0.5092   -8.6335    0.0000 C   0  0  2  0  0  0
    0.2077   -8.2201    0.0000 C   0  0  2  0  0  0
    0.9237   -8.6298    0.0000 O   0  0
   -0.5088   -9.4585    0.0000 O   0  0
   -1.9396   -8.6343    0.0000 O   0  0
    0.1958   -6.5625    0.0000 H   0  0
    1.6083   -4.0875    0.0000 H   0  0
    5.1561   -5.0854    0.0000 O   0  0
 42 45  1  0
 43 47  1  0
 46 44  2  0
 44 45  1  0
 46 47  1  0
 29 31  1  0
 31 32  1  0
 31 33  1  1
 46 50  1  0
 47 48  1  0
 48 49  1  0
 49 51  1  0
 50 51  1  0
 50 55  1  0
 51 52  1  0
 52 53  1  0
 53 54  1  0
 54 55  1  0
 35  1  1  1
 36 56  1  0
 36 57  1  6
 38 58  1  1
 43 59  1  1
 47 60  1  6
 24 32  1  0
 42 61  1  6
 14 13  1  1
 54 62  1  0
 14 15  1  0
 54 63  1  0
 15 16  1  6
 39 64  1  6
 15 17  1  0
 50 65  1  1
 17 18  1  1
 51 66  1  1
 17 19  1  0
 66 23  1  0
 66 67  2  0
 12 19  1  0
 19 20  1  0
 20 21  1  0
 33 13  1  0
 20 22  1  1
 19 68  1  1
 22 69  1  0
  9 10  1  0
 70  1  1  0
  2 12  1  1
  9 11  1  6
  2 10  1  0
  2  3  1  0
  3  4  1  6
  3  5  1  0
  5  6  1  6
 70 78  1  0
 70 71  1  0
 71 72  1  6
 71 73  1  0
 73 74  1  1
 73 75  1  0
 75 76  1  1
 75 77  1  0
 77 78  1  0
  5  7  1  0
 70 79  1  6
  7  8  1  1
 80 72  1  0
 80 81  1  0
  7  9  1  0
 14 21  1  0
 34 35  1  0
 34 37  1  0
 35 36  1  0
 80 85  1  0
 81 82  1  0
 82 83  1  0
 83 84  1  0
 84 85  1  0
 36 39  1  0
 85 86  1  6
 38 37  1  0
 84 87  1  6
 38 39  1  0
 83 88  1  1
 24 23  1  1
 82 89  1  6
 24 25  1  0
 90 87  1  0
 90 91  1  0
 25 26  1  6
 38 42  1  0
 39 40  1  0
 40 41  1  0
 41 43  1  0
 90 95  1  0
 91 92  1  0
 92 93  1  0
 93 94  1  0
 94 95  1  0
 42 43  1  0
 95 96  1  6
 25 27  1  0
 94 97  1  6
 27 28  1  1
 93 98  1  6
 27 29  1  0
 90 99  1  6
 80100  1  6
 29 30  1  6
 57101  1  0
M  END
>  <MOLREGNO>
650549

>  <CHEMBLID>
CHEMBL1171451

>  <SYNONYMS>
Huzhangoside D

>  <MAX_PHASE>
0

>  <MOLWEIGHT>
1353.49

>  <ALOGP>


>  <PSA>


>  <HBA>


>  <HBD>


>  <RO5>


>  <RTB>


>  <RO3>


>  <ACD_MOST_APKA>


>  <ACD_MOST_BPKA>


>  <ACD_LOGP>


>  <ACD_LOGD>


>  <AROMATIC_RINGS>


>  <HEAVY_ATOMS>


>  <QED_WEIGHTED>


>  <HBA_LIPINSKI>


>  <HBD_LIPINSKI>


>  <NUM_LIPINSKI_RO5_VIOLATIONS>


>  <MW_MONOISOTOPIC>
1352.6612

>  <MOLECULAR_SPECIES>


>  <FULL_MOLFORMULA>
C64H104O30

$$$$

  SciTegic10311316262D

 42 46  0  0  0  0            999 V2000
    5.0321  -26.1539    0.0000 C   0  0  1  0  0  0
    5.0321  -26.9757    0.0000 C   0  0  1  0  0  0
    5.6776  -27.4905    0.0000 C   0  0
    6.4806  -27.3089    0.0000 C   0  0  1  0  0  0
    6.8382  -26.5648    0.0000 C   0  0  1  0  0  0
    6.4806  -25.8248    0.0000 C   0  0
    5.6776  -25.6391    0.0000 C   0  0  2  0  0  0
    4.3191  -25.7389    0.0000 C   0  0
    3.6055  -26.1559    0.0000 C   0  0
    3.6061  -26.9757    0.0000 C   0  0  1  0  0  0
    4.3191  -27.3906    0.0000 O   0  0
    7.0775  -27.8787    0.0000 C   0  0
    7.8004  -27.4880    0.0000 C   0  0
    7.6569  -26.6779    0.0000 O   0  0
    3.2203  -25.4223    0.0000 C   0  0
    2.3959  -25.3927    0.0000 C   0  0
    3.6589  -24.7273    0.0000 O   0  0
    2.8519  -26.6415    0.0000 C   0  0
    2.2996  -27.2575    0.0000 O   0  0
    2.7104  -27.9705    0.0000 C   0  0  2  0  0  0
    3.5174  -27.7988    0.0000 C   0  0  1  0  0  0
    2.3444  -28.7064    0.0000 C   0  0
    2.6893  -29.4543    0.0000 C   0  0  2  0  0  0
    3.4880  -29.6499    0.0000 C   0  0
    4.1409  -29.1455    0.0000 C   0  0
    4.1409  -28.3240    0.0000 C   0  0
    2.1642  -30.0922    0.0000 C   0  0
    5.0321  -25.3281    0.0000 O   0  0
    8.5445  -27.8456    0.0000 O   0  0
    6.9644  -28.6975    0.0000 C   0  0
    1.9146  -28.1807    0.0000 H   0  0
    4.3432  -27.7988    0.0000 H   0  0
    3.6639  -30.4568    0.0000 C   0  0
    4.4454  -30.7130    0.0000 C   0  0
    4.6171  -31.5199    0.0000 C   0  0
    5.4028  -31.7718    0.0000 C   0  0
    4.0032  -32.0707    0.0000 O   0  0
    6.0697  -28.0219    0.0000 H   0  0
    7.2490  -25.8518    0.0000 H   0  0
    5.0321  -27.8015    0.0000 H   0  0
    5.8890  -24.8384    0.0000 C   0  0
    2.3308  -26.0061    0.0000 O   0  0
  1  2  1  0
  2  3  1  0
  3  4  1  0
  4  5  1  0
  5  6  1  0
  6  7  1  0
  7  1  1  0
  1  8  1  0
  8  9  2  0
  9 10  1  0
 10 11  1  0
 11  2  1  0
  4 12  1  0
 12 13  1  0
 13 14  1  0
 14  5  1  0
  9 15  1  0
 15 16  1  0
 15 17  2  0
 10 18  1  1
 18 19  1  0
 19 20  1  0
 20 21  1  0
 21 10  1  0
 20 22  1  0
 22 23  1  0
 23 24  1  0
 24 25  2  0
 25 26  1  0
 26 21  1  0
 23 27  1  6
  1 28  1  1
 13 29  2  0
 12 30  2  0
 20 31  1  1
 21 32  1  1
 24 33  1  0
 33 34  2  0
 34 35  1  0
 35 36  1  0
 35 37  2  0
  4 38  1  6
  5 39  1  6
  2 40  1  6
  7 41  1  1
 18 42  2  0
M  END
>  <MOLREGNO>
1560192

>  <CHEMBLID>
CHEMBL2380790

>  <SYNONYMS>


>  <MAX_PHASE>
0

>  <MOLWEIGHT>
510.58

>  <ALOGP>
2.41

>  <PSA>
116.19

>  <HBA>
8

>  <HBD>
1

>  <RO5>
1

>  <RTB>
3

>  <RO3>
N

>  <ACD_MOST_APKA>


>  <ACD_MOST_BPKA>


>  <ACD_LOGP>
4.34

>  <ACD_LOGD>
4.34

>  <AROMATIC_RINGS>
0

>  <HEAVY_ATOMS>
37

>  <QED_WEIGHTED>
.46

>  <HBA_LIPINSKI>
8

>  <HBD_LIPINSKI>
1

>  <NUM_LIPINSKI_RO5_VIOLATIONS>
0

>  <MW_MONOISOTOPIC>
510.2254

>  <MOLECULAR_SPECIES>
NEUTRAL

>  <FULL_MOLFORMULA>
C29H34O8

$$$$

  SciTegic04191614212D

 20 21  0  0  0  0            999 V2000
   -5.1640   -0.2295    0.0000 C   0  0
   -4.3608    0.9869    0.0000 O   0  0
   -4.2919   -1.4230    0.0000 C   0  0
   -2.9378    0.5738    0.0000 C   0  0  2  0  0  0
   -2.8689   -0.9181    0.0000 C   0  0  2  0  0  0
   -1.6754   -1.7673    0.0000 C   0  0
   -1.7902    1.5836    0.0000 C   0  0
    0.0000   -1.3541    0.0000 C   0  0
   -0.3213    1.2853    0.0000 C   0  0
    0.3672    0.0000    0.0000 C   0  0  2  0  0  0
    1.1031   -2.3704    0.0000 C   0  0
    1.5595    0.1359    0.0000 C   0  0
    0.7770   -3.8354    0.0000 C   0  0
    1.8820   -4.8510    0.0000 C   0  0
    3.0269   -4.4915    0.0000 C   0  0
    1.6213   -6.0223    0.0000 O   0  0
   -4.6458   -2.5696    0.0000 C   0  0
   -6.3637   -0.2580    0.0000 O   0  0
   -3.1556    1.5498    0.0000 H   0  0
   -3.0072   -1.9084    0.0000 H   0  0
  1  2  1  0
  2  4  1  0
  5  3  1  0
  3  1  1  0
  4  5  1  0
  5  6  1  0
  4  7  1  0
  6  8  2  0
  7  9  1  0
  8 10  1  0
  9 10  1  0
  8 11  1  0
 10 12  1  6
 11 13  2  0
 13 14  1  0
 14 15  1  0
 14 16  2  0
  3 17  2  0
  1 18  2  0
  4 19  1  6
  5 20  1  1
M  END
>  <MOLREGNO>
1952843

>  <CHEMBLID>
CHEMBL3594240

>  <SYNONYMS>


>  <MAX_PHASE>
0

>  <MOLWEIGHT>
246.3

>  <ALOGP>
2.48

>  <PSA>
43.37

>  <HBA>
3

>  <HBD>
0

>  <RO5>
0

>  <RTB>
2

>  <RO3>
Y

>  <ACD_MOST_APKA>


>  <ACD_MOST_BPKA>


>  <ACD_LOGP>
.55

>  <ACD_LOGD>
.55

>  <AROMATIC_RINGS>
0

>  <HEAVY_ATOMS>
18

>  <QED_WEIGHTED>
.56

>  <HBA_LIPINSKI>
3

>  <HBD_LIPINSKI>
0

>  <NUM_LIPINSKI_RO5_VIOLATIONS>
0

>  <MW_MONOISOTOPIC>
246.1256

>  <MOLECULAR_SPECIES>


>  <FULL_MOLFORMULA>
C15H18O3

$$$$

  SciTegic12231509382D

 51 55  0  0  0  0            999 V2000
    7.0773   -8.5992    0.0000 C   0  0
    6.3500   -8.2097    0.0000 C   0  0
    5.6493   -8.6449    0.0000 C   0  0
    6.3233   -7.3852    0.0000 C   0  0
    5.5960   -6.9957    0.0000 C   0  0
    4.8953   -7.4309    0.0000 O   0  0
    5.5692   -6.1711    0.0000 O   0  0
    4.8419   -5.7817    0.0000 C   0  0  2  0  0  0
    4.1412   -6.2169    0.0000 C   0  0  2  0  0  0
    3.4139   -5.8274    0.0000 C   0  0  1  0  0  0
    3.3871   -5.0028    0.0000 C   0  0  2  0  0  0
    4.0878   -4.5676    0.0000 O   0  0
    4.8152   -4.9571    0.0000 C   0  0  1  0  0  0
    5.5159   -4.5219    0.0000 O   0  0
    5.4891   -3.6972    0.0000 C   0  0  2  0  0  0
    4.7618   -3.3078    0.0000 C   0  0
    4.7351   -2.4833    0.0000 C   0  0  2  0  0  0
    5.4358   -2.0481    0.0000 C   0  0  1  0  0  0
    5.4091   -1.2235    0.0000 C   0  0
    6.1097   -0.7883    0.0000 C   0  0
    6.8370   -1.1777    0.0000 C   0  0  1  0  0  0
    7.5377   -0.7425    0.0000 C   0  0
    8.2650   -1.1319    0.0000 C   0  0  1  0  0  0
    8.2917   -1.9565    0.0000 C   0  0
    7.5911   -2.3917    0.0000 C   0  0
    6.8638   -2.0023    0.0000 C   0  0
    6.1631   -2.4375    0.0000 C   0  0  2  0  0  0
    6.1898   -3.2620    0.0000 C   0  0
    6.8096   -2.9470    0.0000 C   0  0
    8.2680   -0.1981    0.0000 C   0  0
    8.8550    0.3781    0.0000 C   0  0
    6.9003   -0.2252    0.0000 C   0  0  1  0  0  0
    6.3543    0.3963    0.0000 O   0  0
    4.0078   -2.0938    0.0000 C   0  0
    3.9810   -1.2692    0.0000 O   0  0
    3.3071   -2.5290    0.0000 O   0  0
    2.6598   -4.6134    0.0000 C   0  0
    2.6331   -3.7888    0.0000 O   0  0
    2.7132   -6.2626    0.0000 O   0  0
    1.9859   -5.8731    0.0000 S   0  0
    1.5965   -6.6005    0.0000 O   0  0
    2.3718   -5.1480    0.0000 O   0  0
    1.2586   -5.4837    0.0000 O   0  0
    4.1679   -7.0414    0.0000 O   0  0
    3.4672   -7.4766    0.0000 S   0  0
    3.9024   -8.1773    0.0000 O   0  0
    3.0321   -6.7760    0.0000 O   0  0
    2.7666   -7.9118    0.0000 O   0  0
    4.7088   -1.6557    0.0000 H   0  0
    4.7880   -4.1281    0.0000 H   0  0
    8.8602   -0.7467    0.0000 H   0  0
  2  4  1  0
  4  5  1  0
  5  6  2  0
  5  7  1  0
  8  7  1  6
  8  9  1  0
  9 10  1  0
 10 11  1  0
 11 12  1  0
 12 13  1  0
  8 13  1  0
 13 14  1  0
 15 14  1  6
 15 16  1  0
 16 17  1  0
 17 18  1  0
 18 19  1  0
 19 20  1  0
 20 21  1  0
 21 22  1  1
 23 22  1  0
 23 24  1  0
 24 25  1  0
 25 26  1  0
 21 26  1  0
 26 27  1  0
 18 27  1  0
 27 28  1  0
 15 28  1  0
 27 29  1  1
 23 30  1  0
 30 31  2  0
 30 32  1  0
 21 32  1  0
 32 33  1  6
 17 34  1  1
 34 35  2  0
 34 36  1  0
 11 37  1  1
 37 38  1  0
 10 39  1  6
 39 40  1  0
 40 41  2  0
 40 42  2  0
 40 43  1  0
  9 44  1  1
 44 45  1  0
 45 46  2  0
 45 47  2  0
 45 48  1  0
 18 49  1  6
 13 50  1  6
 23 51  1  1
  1  2  1  0
  2  3  1  0
M  END
>  <MOLREGNO>
1449335

>  <CHEMBLID>
CHEMBL2219524

>  <SYNONYMS>
Atractyloside

>  <MAX_PHASE>
0

>  <MOLWEIGHT>
726.81

>  <ALOGP>
1.74

>  <PSA>
266.47

>  <HBA>
16

>  <HBD>
5

>  <RO5>
2

>  <RTB>
12

>  <RO3>
N

>  <ACD_MOST_APKA>
-3.64

>  <ACD_MOST_BPKA>


>  <ACD_LOGP>
3.13

>  <ACD_LOGD>
-2.61

>  <AROMATIC_RINGS>
0

>  <HEAVY_ATOMS>
48

>  <QED_WEIGHTED>
.08

>  <HBA_LIPINSKI>
16

>  <HBD_LIPINSKI>
5

>  <NUM_LIPINSKI_RO5_VIOLATIONS>
1

>  <MW_MONOISOTOPIC>
726.2227

>  <MOLECULAR_SPECIES>
ACID

>  <FULL_MOLFORMULA>
C30H46O16S2

$$$$

  CDK    6/4/10,11:42
 
 24 26  0  0  0  0  0  0  0  0999 V2000
    0.7193   -0.4125    0.0000 C   0  0  0  0  0  0  0  0  0  0  0  0
    0.7290   -1.2374    0.0000 C   0  0  0  0  0  0  0  0  0  0  0  0
    0.0195   -1.6583    0.0000 C   0  0  0  0  0  0  0  0  0  0  0  0
   -0.6998   -1.2543    0.0000 C   0  0  0  0  0  0  0  0  0  0  0  0
   -1.4093   -1.6752    0.0000 C   0  0  0  0  0  0  0  0  0  0  0  0
   -2.1286   -1.2712    0.0000 C   0  0  0  0  0  0  0  0  0  0  0  0
   -2.1384   -0.4462    0.0000 C   0  0  0  0  0  0  0  0  0  0  0  0
   -1.4288   -0.0253    0.0000 C   0  0  0  0  0  0  0  0  0  0  0  0
   -0.7095   -0.4294    0.0000 C   0  0  0  0  0  0  0  0  0  0  0  0
    0.0000   -0.0084    0.0000 O   0  0  0  0  0  0  0  0  0  0  0  0
    0.0292   -2.4833    0.0000 O   0  0  0  0  0  0  0  0  0  0  0  0
   -2.8382   -1.6921    0.0000 O   0  0  0  0  0  0  0  0  0  0  0  0
   -3.5575   -1.2881    0.0000 C   0  0  0  0  0  0  0  0  0  0  0  0
    1.4288    0.0084    0.0000 C   0  0  0  0  0  0  0  0  0  0  0  0
    1.4191    0.8334    0.0000 C   0  0  0  0  0  0  0  0  0  0  0  0
    2.1286    1.2543    0.0000 C   0  0  0  0  0  0  0  0  0  0  0  0
    2.8479    0.8503    0.0000 C   0  0  0  0  0  0  0  0  0  0  0  0
    2.8577    0.0253    0.0000 C   0  0  0  0  0  0  0  0  0  0  0  0
    2.1481   -0.3956    0.0000 C   0  0  0  0  0  0  0  0  0  0  0  0
    2.1189    2.0792    0.0000 O   0  0  0  0  0  0  0  0  0  0  0  0
    2.8284    2.5002    0.0000 C   0  0  0  0  0  0  0  0  0  0  0  0
    3.5575    1.2712    0.0000 O   0  0  0  0  0  0  0  0  0  0  0  0
   -2.8577   -0.0422    0.0000 O   0  0  0  0  0  0  0  0  0  0  0  0
   -1.3996   -2.5002    0.0000 O   0  0  0  0  0  0  0  0  0  0  0  0
  1  2  2  0  0  0  0 
  2  3  1  0  0  0  0 
  3  4  1  0  0  0  0 
  4  5  1  0  0  0  0 
  5  6  2  0  0  0  0 
  6  7  1  0  0  0  0 
  7  8  2  0  0  0  0 
  8  9  1  0  0  0  0 
  4  9  2  0  0  0  0 
  9 10  1  0  0  0  0 
  1 10  1  0  0  0  0 
  3 11  2  0  0  0  0 
 12 13  1  0  0  0  0 
  6 12  1  0  0  0  0 
 14 15  1  0  0  0  0 
 15 16  2  0  0  0  0 
 16 17  1  0  0  0  0 
 17 18  2  0  0  0  0 
 18 19  1  0  0  0  0 
 14 19  2  0  0  0  0 
 20 21  1  0  0  0  0 
 16 20  1  0  0  0  0 
 17 22  1  0  0  0  0 
  1 14  1  0  0  0  0 
  7 23  1  0  0  0  0 
  5 24  1  0  0  0  0 
M  END
>  <MOLREGNO>
444953

>  <CHEMBLID>
CHEMBL487601

>  <SYNONYMS>
Jaceosidine | Jaceosidin

>  <MAX_PHASE>
0

>  <MOLWEIGHT>
330.29

>  <ALOGP>
2.38

>  <PSA>
105.45

>  <HBA>
7

>  <HBD>
3

>  <RO5>
0

>  <RTB>
3

>  <RO3>
N

>  <ACD_MOST_APKA>
6.47

>  <ACD_MOST_BPKA>


>  <ACD_LOGP>
2.14

>  <ACD_LOGD>
.9

>  <AROMATIC_RINGS>
2

>  <HEAVY_ATOMS>
24

>  <QED_WEIGHTED>
.79

>  <HBA_LIPINSKI>
7

>  <HBD_LIPINSKI>
3

>  <NUM_LIPINSKI_RO5_VIOLATIONS>
0

>  <MW_MONOISOTOPIC>
330.074

>  <MOLECULAR_SPECIES>
ACID

>  <FULL_MOLFORMULA>
C17H14O7

$$$$

  CDK    9/16/09,9:19

 29 31  0  0  0  0  0  0  0  0999 V2000
   11.7694   -8.0779    0.0000 C   0  0  0  0  0  0  0  0  0  0  0  0
   12.2154   -7.3869    0.0000 C   0  0  0  0  0  0  0  0  0  0  0  0
   11.6998   -6.7495    0.0000 C   0  0  0  0  0  0  0  0  0  0  0  0
   10.9331   -7.0460    0.0000 C   0  0  0  0  0  0  0  0  0  0  0  0
   10.9735   -7.8648    0.0000 C   0  0  0  0  0  0  0  0  0  0  0  0
   10.3586   -8.4148    0.0000 C   0  0  0  0  0  0  0  0  0  0  0  0
   10.2588   -6.5660    0.0000 C   0  0  0  0  0  0  0  0  0  0  0  0
    9.5434   -8.2819    0.0000 C   0  0  0  0  0  0  0  0  0  0  0  0
    9.4627   -6.7919    0.0000 C   0  0  0  0  0  0  0  0  0  0  0  0
    9.1468   -7.5563    0.0000 C   0  0  0  0  0  0  0  0  0  0  0  0
   11.3386   -6.3282    0.0000 C   0  0  0  0  0  0  0  0  0  0  0  0
   10.9187   -5.6169    0.0000 O   0  0  0  0  0  0  0  0  0  0  0  0
   12.1607   -6.3204    0.0000 O   0  0  0  0  0  0  0  0  0  0  0  0
   12.5912   -8.0767    0.0000 C   0  0  0  0  0  0  0  0  0  0  0  0
   12.5869   -8.8987    0.0000 C   0  0  0  0  0  0  0  0  0  0  0  0
   13.4176   -8.0767    0.0000 C   0  0  0  0  0  0  0  0  0  0  0  0
   13.8264   -7.3613    0.0000 C   0  0  0  0  0  0  0  0  0  0  0  0
   14.6528   -7.3613    0.0000 C   0  0  0  0  0  0  0  0  0  0  0  0
   15.0660   -6.6504    0.0000 C   0  0  0  0  0  0  0  0  0  0  0  0
   15.8880   -6.6504    0.0000 C   0  0  0  0  0  0  0  0  0  0  0  0
   14.6528   -5.9350    0.0000 C   0  0  0  0  0  0  0  0  0  0  0  0
   16.3027   -7.3591    0.0000 O   0  0  0  0  0  0  0  0  0  0  0  0
   16.3027   -5.9327    0.0000 O   0  0  0  0  0  0  0  0  0  0  0  0
   10.9689   -8.7247    0.0000 O   0  0  0  0  0  0  0  0  0  0  0  0
   11.7648   -8.9378    0.0000 H   0  0  0  0  0  0  0  0  0  0  0  0
    8.2866   -7.6031    0.0000 C   0  0  0  0  0  0  0  0  0  0  0  0
    7.8163   -6.8817    0.0000 O   0  0  0  0  0  0  0  0  0  0  0  0
    7.8969   -8.3711    0.0000 O   0  0  0  0  0  0  0  0  0  0  0  0
    6.9545   -6.8763    0.0000 C   0  0  0  0  0  0  0  0  0  0  0  0
  1 14  1  0  0  0  0 
 14 13  1  0  0  0  0 
  4  7  1  0  0  0  0 
 14 15  1  1  0  0  0 
  3  4  1  0  0  0  0 
 14 16  1  0  0  0  0 
  6  8  1  0  0  0  0 
 16 17  2  0  0  0  0 
  5  1  1  0  0  0  0 
 17 18  1  0  0  0  0 
  7  9  1  0  0  0  0 
 18 19  2  0  0  0  0 
 19 20  1  0  0  0  0 
  8 10  1  0  0  0  0 
 19 21  1  0  0  0  0 
  9 10  2  0  0  0  0 
  4  5  1  0  0  0  0 
 20 22  1  0  0  0  0 
 20 23  2  0  0  0  0 
  4 11  1  1  0  0  0 
  5 24  1  6  0  0  0 
  1  2  1  0  0  0  0 
  1 25  1  6  0  0  0 
 11 12  2  0  0  0  0 
  5  6  1  0  0  0  0 
 11 13  1  0  0  0  0 
 26 27  1  0  0  0  0 
 26 28  2  0  0  0  0 
 10 26  1  0  0  0  0 
  2  3  1  0  0  0  0 
 27 29  1  0  0  0  0 
M  END
>  <MOLREGNO>
373311

>  <CHEMBLID>
CHEMBL225131

>  <SYNONYMS>
Pseudolaric Acid C1 | Pseudolaric Acid C

>  <MAX_PHASE>
0

>  <MOLWEIGHT>
390.43

>  <ALOGP>
2.41

>  <PSA>
110.13

>  <HBA>
7

>  <HBD>
2

>  <RO5>
0

>  <RTB>
5

>  <RO3>
N

>  <ACD_MOST_APKA>
4.52

>  <ACD_MOST_BPKA>


>  <ACD_LOGP>
1.77

>  <ACD_LOGD>
-1.07

>  <AROMATIC_RINGS>
0

>  <HEAVY_ATOMS>
28

>  <QED_WEIGHTED>
.42

>  <HBA_LIPINSKI>
7

>  <HBD_LIPINSKI>
2

>  <NUM_LIPINSKI_RO5_VIOLATIONS>
0

>  <MW_MONOISOTOPIC>
390.1679

>  <MOLECULAR_SPECIES>
ACID

>  <FULL_MOLFORMULA>
C21H26O7

$$$$

  SciTegic03161210572D

 23 26  0  0  0  0            999 V2000
    4.5331    0.3681    0.0000 C   0  0
    4.5313    2.0211    0.0000 C   0  0
    5.2466    1.6120    0.0000 C   0  0
    5.2455    0.7835    0.0000 C   0  0
    5.9584    0.3706    0.0000 O   0  0
    6.6771    0.7815    0.0000 C   0  0
    6.6783    1.6100    0.0000 C   0  0
    5.9608    2.0275    0.0000 C   0  0
    3.8182    0.7810    0.0000 C   0  0
    3.8149    1.6053    0.0000 C   0  0
    3.0299    1.8569    0.0000 C   0  0
    2.5480    1.1880    0.0000 C   0  0
    3.0353    0.5232    0.0000 O   0  0
    7.3904    0.3670    0.0000 O   0  0
    4.5286    2.8461    0.0000 O   0  0
    3.8128    3.2563    0.0000 C   0  0
    4.5347   -0.4569    0.0000 O   0  0
    3.8211   -0.8708    0.0000 C   0  0
    2.3939   -1.6987    0.0000 C   0  0
    3.8270   -1.6987    0.0000 C   0  0  2  0  0  0
    3.1092   -2.1098    0.0000 C   0  0
    3.8241   -2.5259    0.0000 O   0  0
    2.6917   -2.8208    0.0000 C   0  0
  3  2  2  0
  2 10  1  0
 10 11  1  0
 11 12  2  0
 12 13  1  0
 13  9  1  0
  3  4  1  0
  6 14  2  0
  3  8  1  0
  2 15  1  0
  4  5  1  0
 15 16  1  0
  5  6  1  0
  1 17  1  0
  6  7  1  0
 17 18  1  0
 20 18  1  1
  7  8  2  0
 21 19  1  0
 21 20  1  0
 22 21  1  0
 20 22  1  0
  9 10  2  0
  9  1  1  0
  1  4  2  0
 21 23  1  0
M  END
>  <MOLREGNO>
1271662

>  <CHEMBLID>
CHEMBL1934196

>  <SYNONYMS>
Byakangelicol

>  <MAX_PHASE>
0

>  <MOLWEIGHT>
316.31

>  <ALOGP>
2.47

>  <PSA>
70.43

>  <HBA>
5

>  <HBD>
0

>  <RO5>
0

>  <RTB>
4

>  <RO3>
N

>  <ACD_MOST_APKA>


>  <ACD_MOST_BPKA>


>  <ACD_LOGP>
1.56

>  <ACD_LOGD>
1.56

>  <AROMATIC_RINGS>
2

>  <HEAVY_ATOMS>
23

>  <QED_WEIGHTED>
.64

>  <HBA_LIPINSKI>
6

>  <HBD_LIPINSKI>
0

>  <NUM_LIPINSKI_RO5_VIOLATIONS>
0

>  <MW_MONOISOTOPIC>
316.0947

>  <MOLECULAR_SPECIES>


>  <FULL_MOLFORMULA>
C17H16O6

$$$$

  SciTegic02011310442D

 42 46  0  0  0  0            999 V2000
   14.4252   -8.9521    0.0000 C   0  0
   14.4252   -8.1295    0.0000 C   0  0
   15.1386   -7.7134    0.0000 O   0  0
   15.8538   -8.1295    0.0000 C   0  0  1  0  0  0
   15.8538   -8.9521    0.0000 C   0  0
   15.1386   -9.3628    0.0000 C   0  0
   15.1386  -10.1893    0.0000 O   0  0
   16.5689   -7.7134    0.0000 C   0  0
   17.2839   -8.1295    0.0000 C   0  0
   18.0029   -7.7134    0.0000 C   0  0
   18.0029   -6.8869    0.0000 C   0  0
   17.2839   -6.4843    0.0000 C   0  0
   16.5689   -6.8869    0.0000 C   0  0
   18.7139   -6.4843    0.0000 O   0  0
   18.7139   -8.1295    0.0000 O   0  0
   13.7142   -7.7134    0.0000 C   0  0
   12.9990   -8.1295    0.0000 C   0  0
   12.9990   -8.9521    0.0000 C   0  0
   13.7142   -9.3628    0.0000 C   0  0
   13.7142  -10.1893    0.0000 O   0  0
   12.2834   -7.7108    0.0000 O   0  0
   11.5570   -8.0986    0.0000 C   0  0  2  0  0  0
   10.8608   -7.6620    0.0000 O   0  0
   10.1303   -8.0498    0.0000 C   0  0  1  0  0  0
   10.0987   -8.8748    0.0000 C   0  0  2  0  0  0
   10.8056   -9.3119    0.0000 C   0  0  1  0  0  0
   11.5319   -8.9199    0.0000 C   0  0  1  0  0  0
   12.2321   -9.3640    0.0000 O   0  0
   10.7737  -10.1444    0.0000 O   0  0
    9.3724   -9.2669    0.0000 O   0  0
    9.4276   -7.6170    0.0000 C   0  0
    9.4592   -6.7876    0.0000 O   0  0
    8.7528   -6.3595    0.0000 C   0  0  1  0  0  0
    8.0265   -6.7473    0.0000 C   0  0  1  0  0  0
    7.3274   -6.3059    0.0000 C   0  0  1  0  0  0
    7.3553   -5.4850    0.0000 C   0  0  2  0  0  0
    8.0816   -5.0973    0.0000 C   0  0  1  0  0  0
    8.7886   -5.5301    0.0000 O   0  0
    8.1133   -4.2680    0.0000 C   0  0
    6.6562   -5.0480    0.0000 O   0  0
    6.6008   -6.6980    0.0000 O   0  0
    7.9980   -7.5676    0.0000 O   0  0
  1  2  1  0
  2  3  1  0
  3  4  1  0
  5  4  1  0
  6  5  1  0
  1  6  1  0
  6  7  2  0
  4  8  1  6
  8  9  1  0
  9 10  2  0
 10 11  1  0
 12 11  2  0
 13 12  1  0
  8 13  2  0
 11 14  1  0
 10 15  1  0
  2 16  2  0
 16 17  1  0
 18 17  2  0
 19 18  1  0
  1 19  2  0
 19 20  1  0
 17 21  1  0
 22 21  1  1
 22 23  1  0
 23 24  1  0
 24 25  1  0
 26 25  1  0
 27 26  1  0
 22 27  1  0
 27 28  1  6
 26 29  1  1
 25 30  1  6
 24 31  1  1
 31 32  1  0
 33 32  1  1
 33 34  1  0
 34 35  1  0
 35 36  1  0
 37 36  1  0
 38 37  1  0
 33 38  1  0
 37 39  1  6
 36 40  1  1
 35 41  1  6
 34 42  1  6
M  END
>  <MOLREGNO>
1429025

>  <CHEMBLID>
CHEMBL2165586

>  <SYNONYMS>
Eriocitrin

>  <MAX_PHASE>
0

>  <MOLWEIGHT>
596.53

>  <ALOGP>
-.66

>  <PSA>
245.28

>  <HBA>
15

>  <HBD>
9

>  <RO5>
3

>  <RTB>
6

>  <RO3>
N

>  <ACD_MOST_APKA>
9.23

>  <ACD_MOST_BPKA>


>  <ACD_LOGP>
2.39

>  <ACD_LOGD>
2.38

>  <AROMATIC_RINGS>
2

>  <HEAVY_ATOMS>
42

>  <QED_WEIGHTED>
.19

>  <HBA_LIPINSKI>
15

>  <HBD_LIPINSKI>
9

>  <NUM_LIPINSKI_RO5_VIOLATIONS>
2

>  <MW_MONOISOTOPIC>
596.1741

>  <MOLECULAR_SPECIES>
NEUTRAL

>  <FULL_MOLFORMULA>
C27H32O15

$$$$

  CDK    9/16/09,9:20

 27 29  0  0  0  0  0  0  0  0999 V2000
    4.1902  -10.2833    0.0000 C   0  0  0  0  0  0  0  0  0  0  0  0
    4.1891  -11.1107    0.0000 C   0  0  0  0  0  0  0  0  0  0  0  0
    4.9039  -11.5235    0.0000 C   0  0  0  0  0  0  0  0  0  0  0  0
    4.9021   -9.8705    0.0000 C   0  0  0  0  0  0  0  0  0  0  0  0
    5.6175  -10.2797    0.0000 C   0  0  0  0  0  0  0  0  0  0  0  0
    5.6163  -11.1127    0.0000 C   0  0  0  0  0  0  0  0  0  0  0  0
    6.3332  -11.5280    0.0000 C   0  0  0  0  0  0  0  0  0  0  0  0
    7.0558  -11.1148    0.0000 C   0  0  0  0  0  0  0  0  0  0  0  0
    7.0570  -10.2817    0.0000 C   0  0  0  0  0  0  0  0  0  0  0  0
    6.3356   -9.8619    0.0000 O   0  0  0  0  0  0  0  0  0  0  0  0
    6.3308  -12.3530    0.0000 O   0  0  0  0  0  0  0  0  0  0  0  0
    7.7708   -9.8736    0.0000 C   0  0  0  0  0  0  0  0  0  0  0  0
    8.4845  -10.2895    0.0000 C   0  0  0  0  0  0  0  0  0  0  0  0
    9.1995   -9.8795    0.0000 C   0  0  0  0  0  0  0  0  0  0  0  0
    9.2020   -9.0536    0.0000 C   0  0  0  0  0  0  0  0  0  0  0  0
    8.4835   -8.6395    0.0000 C   0  0  0  0  0  0  0  0  0  0  0  0
    7.7715   -9.0520    0.0000 C   0  0  0  0  0  0  0  0  0  0  0  0
    4.9036  -12.3485    0.0000 O   0  0  0  0  0  0  0  0  0  0  0  0
    3.4743  -11.5226    0.0000 O   0  0  0  0  0  0  0  0  0  0  0  0
    3.4757   -9.8710    0.0000 O   0  0  0  0  0  0  0  0  0  0  0  0
    3.4755   -9.0460    0.0000 C   0  0  0  0  0  0  0  0  0  0  0  0
    3.4736  -12.3476    0.0000 C   0  0  0  0  0  0  0  0  0  0  0  0
    9.9169   -8.6419    0.0000 O   0  0  0  0  0  0  0  0  0  0  0  0
   10.6309   -9.0552    0.0000 C   0  0  0  0  0  0  0  0  0  0  0  0
    9.9128  -10.2941    0.0000 O   0  0  0  0  0  0  0  0  0  0  0  0
    9.9104  -11.1191    0.0000 C   0  0  0  0  0  0  0  0  0  0  0  0
    5.6179  -12.7613    0.0000 C   0  0  0  0  0  0  0  0  0  0  0  0
  3  6  2  0  0  0  0 
 13 14  1  0  0  0  0 
  1  2  2  0  0  0  0 
 14 15  2  0  0  0  0 
  5  4  2  0  0  0  0 
 15 16  1  0  0  0  0 
  4  1  1  0  0  0  0 
 16 17  2  0  0  0  0 
 17 12  1  0  0  0  0 
  9 12  1  0  0  0  0 
  5 10  1  0  0  0  0 
  3 18  1  0  0  0  0 
  6  7  1  0  0  0  0 
  2 19  1  0  0  0  0 
  7  8  1  0  0  0  0 
  1 20  1  0  0  0  0 
  8  9  2  0  0  0  0 
 20 21  1  0  0  0  0 
  9 10  1  0  0  0  0 
 19 22  1  0  0  0  0 
  5  6  1  0  0  0  0 
 15 23  1  0  0  0  0 
  7 11  2  0  0  0  0 
 23 24  1  0  0  0  0 
 14 25  1  0  0  0  0 
  2  3  1  0  0  0  0 
 25 26  1  0  0  0  0 
 12 13  2  0  0  0  0 
 18 27  1  0  0  0  0 
M  END
>  <MOLREGNO>
379523

>  <CHEMBLID>
CHEMBL226507

>  <SYNONYMS>
Sinensetin

>  <MAX_PHASE>
0

>  <MOLWEIGHT>
372.37

>  <ALOGP>
3.05

>  <PSA>
72.45

>  <HBA>
7

>  <HBD>
0

>  <RO5>
0

>  <RTB>
6

>  <RO3>
N

>  <ACD_MOST_APKA>


>  <ACD_MOST_BPKA>


>  <ACD_LOGP>
2.63

>  <ACD_LOGD>
2.63

>  <AROMATIC_RINGS>
2

>  <HEAVY_ATOMS>
27

>  <QED_WEIGHTED>
.77

>  <HBA_LIPINSKI>
7

>  <HBD_LIPINSKI>
0

>  <NUM_LIPINSKI_RO5_VIOLATIONS>
0

>  <MW_MONOISOTOPIC>
372.1209

>  <MOLECULAR_SPECIES>


>  <FULL_MOLFORMULA>
C20H20O7

$$$$

  CDK    6/4/10,11:42

 20 23  0  0  0  0  0  0  0  0999 V2000
    0.4653  -17.3987    0.0000 C   0  0  0  0  0  0  0  0  0  0  0  0
    0.4642  -18.2263    0.0000 C   0  0  0  0  0  0  0  0  0  0  0  0
    1.1791  -18.6391    0.0000 C   0  0  0  0  0  0  0  0  0  0  0  0
    1.1773  -16.9859    0.0000 C   0  0  0  0  0  0  0  0  0  0  0  0
    1.8928  -17.3951    0.0000 C   0  0  0  0  0  0  0  0  0  0  0  0
    1.8976  -18.2217    0.0000 C   0  0  0  0  0  0  0  0  0  0  0  0
    2.6853  -18.4725    0.0000 N   0  0  0  0  0  0  0  0  0  0  0  0
    3.1672  -17.8009    0.0000 C   0  0  0  0  0  0  0  0  0  0  0  0
    2.6775  -17.1351    0.0000 C   0  0  0  0  0  0  0  0  0  0  0  0
    2.9278  -16.3489    0.0000 O   0  0  0  0  0  0  0  0  0  0  0  0
    3.9924  -17.7988    0.0000 C   0  0  0  0  0  0  0  0  0  0  0  0
    4.4827  -18.4623    0.0000 C   0  0  0  0  0  0  0  0  0  0  0  0
    4.4793  -17.1274    0.0000 N   0  0  0  0  0  0  0  0  0  0  0  0
    4.2319  -19.2484    0.0000 O   0  0  0  0  0  0  0  0  0  0  0  0
    5.2646  -17.3802    0.0000 C   0  0  0  0  0  0  0  0  0  0  0  0
    5.2650  -18.2013    0.0000 C   0  0  0  0  0  0  0  0  0  0  0  0
    5.9750  -18.6096    0.0000 C   0  0  0  0  0  0  0  0  0  0  0  0
    6.6852  -18.1983    0.0000 C   0  0  0  0  0  0  0  0  0  0  0  0
    6.6809  -17.3741    0.0000 C   0  0  0  0  0  0  0  0  0  0  0  0
    5.9703  -16.9694    0.0000 C   0  0  0  0  0  0  0  0  0  0  0  0
  4  1  1  0  0  0  0 
  9 10  2  0  0  0  0 
  5  6  1  0  0  0  0 
  8 11  2  0  0  0  0 
 11 12  1  0  0  0  0 
  2  3  1  0  0  0  0 
 12 16  1  0  0  0  0 
 15 13  1  0  0  0  0 
 13 11  1  0  0  0  0 
  3  6  2  0  0  0  0 
 12 14  2  0  0  0  0 
  1  2  2  0  0  0  0 
  5  4  2  0  0  0  0 
 15 16  2  0  0  0  0 
  6  7  1  0  0  0  0 
 16 17  1  0  0  0  0 
  7  8  1  0  0  0  0 
 17 18  2  0  0  0  0 
  8  9  1  0  0  0  0 
 18 19  1  0  0  0  0 
  9  5  1  0  0  0  0 
 19 20  2  0  0  0  0 
 20 15  1  0  0  0  0 
M  END
>  <MOLREGNO>
601890

>  <CHEMBLID>
CHEMBL599552

>  <SYNONYMS>
Indigo

>  <MAX_PHASE>
0

>  <MOLWEIGHT>
262.26

>  <ALOGP>
2.11

>  <PSA>
58.2

>  <HBA>
4

>  <HBD>
2

>  <RO5>
0

>  <RTB>
0

>  <RO3>
N

>  <ACD_MOST_APKA>


>  <ACD_MOST_BPKA>


>  <ACD_LOGP>
3.19

>  <ACD_LOGD>
3.19

>  <AROMATIC_RINGS>
2

>  <HEAVY_ATOMS>
20

>  <QED_WEIGHTED>
.71

>  <HBA_LIPINSKI>
4

>  <HBD_LIPINSKI>
2

>  <NUM_LIPINSKI_RO5_VIOLATIONS>
0

>  <MW_MONOISOTOPIC>
262.0742

>  <MOLECULAR_SPECIES>
NEUTRAL

>  <FULL_MOLFORMULA>
C16H10N2O2

$$$$

  SciTegic03161210572D

 20 22  0  0  0  0            999 V2000
   -2.9792   -7.3833    0.0000 C   0  0
   -3.1917   -6.5875    0.0000 C   0  0
   -3.7746   -7.1694    0.0000 C   0  0
   -5.4917   -4.5500    0.0000 C   0  0
   -5.4917   -5.3750    0.0000 C   0  0
   -4.7796   -5.7833    0.0000 C   0  0  2  0  0  0
   -4.7796   -4.1333    0.0000 C   0  0
   -4.0676   -4.5500    0.0000 C   0  0
   -4.0666   -5.3750    0.0000 C   0  0  1  0  0  0
   -2.6420   -4.5482    0.0000 C   0  0
   -3.3576   -4.1343    0.0000 C   0  0
   -3.3598   -3.3093    0.0000 O   0  0
   -2.6410   -5.3732    0.0000 C   0  0  2  0  0  0
   -3.3586   -5.7820    0.0000 C   0  0  1  0  0  0
   -2.3707   -6.6819    0.0000 O   0  0
   -2.0305   -5.9294    0.0000 O   0  0
   -4.0708   -6.1958    0.0000 C   0  0
   -4.7875   -6.6083    0.0000 C   0  0
   -1.9292   -4.9542    0.0000 H   0  0
   -3.3667   -4.9542    0.0000 H   0  0
  8 11  1  0
  9 14  1  0
 13 10  1  0
 10 11  1  0
  4  7  1  0
 11 12  2  0
 13 14  1  0
  5  6  1  0
  6  9  1  0
  8  7  2  0
  8  9  1  0
 14  2  1  0
  2 15  1  0
 15 16  1  0
 16 13  1  0
  9 17  1  6
  2  1  1  0
  6 18  1  6
  3  2  1  0
 13 19  1  6
  4  5  1  0
 14 20  1  6
M  END
>  <MOLREGNO>
1271163

>  <CHEMBLID>
CHEMBL1933702

>  <SYNONYMS>
Nardosinone

>  <MAX_PHASE>
0

>  <MOLWEIGHT>
250.33

>  <ALOGP>
2.18

>  <PSA>
35.53

>  <HBA>
3

>  <HBD>
0

>  <RO5>
0

>  <RTB>
0

>  <RO3>
Y

>  <ACD_MOST_APKA>
9.99

>  <ACD_MOST_BPKA>
9.01

>  <ACD_LOGP>
2.12

>  <ACD_LOGD>
.41

>  <AROMATIC_RINGS>
0

>  <HEAVY_ATOMS>
18

>  <QED_WEIGHTED>
.62

>  <HBA_LIPINSKI>
3

>  <HBD_LIPINSKI>
0

>  <NUM_LIPINSKI_RO5_VIOLATIONS>
0

>  <MW_MONOISOTOPIC>
250.1569

>  <MOLECULAR_SPECIES>
BASE

>  <FULL_MOLFORMULA>
C15H22O3

$$$$

  SciTegic12231509382D

 26 30  0  0  0  0            999 V2000
   -3.2239    0.5446    0.0000 O   0  0
   -3.5536   -0.7489    0.0000 O   0  0
    2.2388    1.4432    0.0000 O   0  0
    3.4197    0.2907    0.0000 O   0  0
   -0.1439    0.7735    0.0000 N   0  3
   -0.3477   -0.0260    0.0000 C   0  0
    0.2428   -0.6022    0.0000 C   0  0
   -1.1419   -0.2492    0.0000 C   0  0
    1.0370   -0.3789    0.0000 C   0  0
    1.2408    0.4205    0.0000 C   0  0
   -1.3457   -1.0486    0.0000 C   0  0
    2.0350    0.6437    0.0000 C   0  0
    0.6503    0.9967    0.0000 C   0  0
   -1.7323    0.3270    0.0000 C   0  0
    0.0390   -1.4016    0.0000 C   0  0
   -2.5266    0.1038    0.0000 C   0  0
   -2.7304   -0.6957    0.0000 C   0  0
   -0.7553   -1.6248    0.0000 C   0  0
   -2.1399   -1.2719    0.0000 C   0  0
    1.6274   -0.9552    0.0000 C   0  0
    2.6254    0.0675    0.0000 C   0  0
    2.4216   -0.7319    0.0000 C   0  0
   -0.7343    1.3497    0.0000 C   0  0
   -3.8587    0.0176    0.0000 C   0  0
    3.0330    1.6664    0.0000 C   0  0
    3.6234    1.0902    0.0000 C   0  0
  1 16  1  0
  1 24  1  0
  2 17  1  0
  2 24  1  0
  3 12  1  0
  3 25  1  0
  4 21  1  0
  4 26  1  0
  5  6  1  0
  5 13  2  0
  5 23  1  0
  6  7  2  0
  6  8  1  0
  7  9  1  0
  7 15  1  0
  8 11  2  0
  8 14  1  0
  9 10  2  0
  9 20  1  0
 10 12  1  0
 10 13  1  0
 11 18  1  0
 11 19  1  0
 12 21  2  0
 14 16  2  0
 15 18  2  0
 16 17  1  0
 17 19  2  0
 20 22  2  0
 21 22  1  0
M  CHG  1   5   1
M  END
>  <MOLREGNO>
11199

>  <CHEMBLID>
CHEMBL13045

>  <SYNONYMS>
Chelerythrine | Chelerythrine Chloride

>  <MAX_PHASE>
0

>  <MOLWEIGHT>
348.37

>  <ALOGP>
4.19

>  <PSA>
40.8

>  <HBA>
4

>  <HBD>
0

>  <RO5>
0

>  <RTB>
2

>  <RO3>
N

>  <ACD_MOST_APKA>


>  <ACD_MOST_BPKA>


>  <ACD_LOGP>
-.4

>  <ACD_LOGD>
-.4

>  <AROMATIC_RINGS>
4

>  <HEAVY_ATOMS>
26

>  <QED_WEIGHTED>
.4

>  <HBA_LIPINSKI>
5

>  <HBD_LIPINSKI>
0

>  <NUM_LIPINSKI_RO5_VIOLATIONS>
0

>  <MW_MONOISOTOPIC>
348.1236

>  <MOLECULAR_SPECIES>


>  <FULL_MOLFORMULA>
C21H18NO4

$$$$

  SciTegic12231509382D

 25 30  0  0  0  0            999 V2000
    9.4590    1.0328    0.0000 O   0  0
   10.2598   -0.0352    0.0000 O   0  0
    3.7724    1.0677    0.0000 O   0  0
    3.2480   -0.1599    0.0000 O   0  0
    6.8511    0.8209    0.0000 N   0  3
    6.5269    0.0622    0.0000 C   0  0
    7.0219   -0.5978    0.0000 C   0  0
    7.8410   -0.4992    0.0000 C   0  0
    5.7078   -0.0364    0.0000 C   0  0
    8.1651    0.2595    0.0000 C   0  0
    5.3837   -0.7951    0.0000 C   0  0
    8.9842    0.3581    0.0000 C   0  0
    7.6701    0.9195    0.0000 C   0  0
    9.4791   -0.3019    0.0000 C   0  0
    6.6978   -1.3565    0.0000 C   0  0
    5.2129    0.6236    0.0000 C   0  0
    4.3938    0.5250    0.0000 C   0  0
    8.3359   -1.1592    0.0000 C   0  0
    4.0697   -0.2337    0.0000 C   0  0
    5.8787   -1.4551    0.0000 C   0  0
    4.5646   -0.8937    0.0000 C   0  0
    9.1550   -1.0606    0.0000 C   0  0
    6.3561    1.4809    0.0000 C   0  0
   10.2473    0.7897    0.0000 C   0  0
    3.0643    0.6444    0.0000 C   0  0
  1 12  1  0
  1 24  1  0
  2 14  1  0
  2 24  1  0
  3 17  1  0
  3 25  1  0
  4 19  1  0
  4 25  1  0
  5  6  2  0
  5 13  1  0
  5 23  1  0
  6  7  1  0
  6  9  1  0
  7  8  2  0
  7 15  1  0
  8 10  1  0
  8 18  1  0
  9 11  1  0
  9 16  2  0
 10 12  1  0
 10 13  2  0
 11 20  1  0
 11 21  2  0
 12 14  2  0
 14 22  1  0
 15 20  2  0
 16 17  1  0
 17 19  2  0
 18 22  2  0
 19 21  1  0
M  CHG  1   5   1
M  END
>  <MOLREGNO>
11164

>  <CHEMBLID>
CHEMBL417799

>  <SYNONYMS>
SANGUINARINE CHLORIDE | Sanguinarine Nitrate | SANGUINARIUM CHLORIDE | Sanguinarine | SANGUINARIUM

>  <MAX_PHASE>
0

>  <MOLWEIGHT>
332.33

>  <ALOGP>
3.99

>  <PSA>
40.8

>  <HBA>
4

>  <HBD>
0

>  <RO5>
0

>  <RTB>
0

>  <RO3>
N

>  <ACD_MOST_APKA>


>  <ACD_MOST_BPKA>
1.76

>  <ACD_LOGP>
4.86

>  <ACD_LOGD>
4.86

>  <AROMATIC_RINGS>
4

>  <HEAVY_ATOMS>
25

>  <QED_WEIGHTED>
.36

>  <HBA_LIPINSKI>
5

>  <HBD_LIPINSKI>
0

>  <NUM_LIPINSKI_RO5_VIOLATIONS>
0

>  <MW_MONOISOTOPIC>
332.0923

>  <MOLECULAR_SPECIES>
NEUTRAL

>  <FULL_MOLFORMULA>
C20H14NO4

$$$$

  SciTegic12231509382D

 26 30  0  0  0  0            999 V2000
    8.0295  -14.3379    0.0000 C   0  0
    8.7384  -14.7348    0.0000 C   0  0
    7.2996  -14.7348    0.0000 C   0  0
    8.0295  -13.5111    0.0000 C   0  0
    9.4590  -14.3379    0.0000 C   0  0
    8.7384  -15.5616    0.0000 N   0  3
    7.2996  -15.5616    0.0000 C   0  0
    6.5839  -14.3379    0.0000 C   0  0
    8.7384  -13.1093    0.0000 C   0  0
    9.4590  -13.5111    0.0000 C   0  0
   10.1653  -14.7255    0.0000 C   0  0
    8.0295  -15.9609    0.0000 C   0  0
    9.4494  -15.9468    0.0000 C   0  0
    6.5839  -15.9609    0.0000 C   0  0
    5.8610  -14.7348    0.0000 C   0  0
   10.1653  -13.1093    0.0000 C   0  0
   10.9071  -14.3568    0.0000 C   0  0
    5.8610  -15.5616    0.0000 C   0  0
    5.1569  -14.3381    0.0000 O   0  0
   10.9071  -13.5040    0.0000 C   0  0
   11.6773  -14.5671    0.0000 O   0  0
    5.1569  -15.9468    0.0000 O   0  0
    5.1569  -13.5301    0.0000 C   0  0
   11.6773  -13.2748    0.0000 O   0  0
   12.1591  -13.9291    0.0000 C   0  0
    4.4578  -15.5616    0.0000 C   0  0
  1  2  2  0
  1  3  1  0
  1  4  1  0
  2  5  1  0
  2  6  1  0
  3  7  2  0
  3  8  1  0
  4  9  2  0
  5 10  2  0
  5 11  1  0
  6 12  2  0
  6 13  1  0
  7 14  1  0
  8 15  2  0
 10 16  1  0
 11 17  2  0
 14 18  2  0
 15 19  1  0
 16 20  2  0
 17 21  1  0
 18 22  1  0
 19 23  1  0
 20 24  1  0
 21 25  1  0
 22 26  1  0
  7 12  1  0
  9 10  1  0
 15 18  1  0
 17 20  1  0
 24 25  1  0
M  CHG  1   6   1
M  END
>  <MOLREGNO>
297217

>  <CHEMBLID>
CHEMBL176008

>  <SYNONYMS>
NSC-146397

>  <MAX_PHASE>
0

>  <MOLWEIGHT>
348.37

>  <ALOGP>
4.19

>  <PSA>
40.79

>  <HBA>
4

>  <HBD>
0

>  <RO5>
0

>  <RTB>
2

>  <RO3>
N

>  <ACD_MOST_APKA>


>  <ACD_MOST_BPKA>


>  <ACD_LOGP>
-.4

>  <ACD_LOGD>
-.4

>  <AROMATIC_RINGS>
4

>  <HEAVY_ATOMS>
26

>  <QED_WEIGHTED>
.4

>  <HBA_LIPINSKI>
5

>  <HBD_LIPINSKI>
0

>  <NUM_LIPINSKI_RO5_VIOLATIONS>
0

>  <MW_MONOISOTOPIC>
348.1236

>  <MOLECULAR_SPECIES>


>  <FULL_MOLFORMULA>
C21H18NO4

$$$$

  SciTegic11201309402D

 40 44  0  0  0  0            999 V2000
   -2.1986   -0.6045    0.0000 C   0  0
   -1.3830   -0.4804    0.0000 O   0  0
   -1.0826    0.2879    0.0000 C   0  0
   -1.5058    0.8680    0.0000 C   0  0
   -1.0045    1.6205    0.0000 C   0  0  2  0  0  0
   -1.6785    1.1448    0.0000 C   0  0
   -2.3392    1.6387    0.0000 C   0  0
   -2.0736    2.4198    0.0000 C   0  0
   -1.2487    2.4085    0.0000 N   0  0
   -0.7848    3.0908    0.0000 C   0  0
    0.0378    3.1535    0.0000 C   0  0
    0.5997    2.5495    0.0000 C   0  0
    1.3673    2.8519    0.0000 C   0  0
    2.0130    2.3383    0.0000 C   0  0
    2.8267    2.4745    0.0000 O   0  0
    3.2077    1.7428    0.0000 C   0  0
    2.6294    1.1543    0.0000 O   0  0
    1.8911    1.5224    0.0000 C   0  0
    1.1235    1.2200    0.0000 C   0  0
    0.4778    1.7335    0.0000 C   0  0
   -0.2361    1.3201    0.0000 C   0  0  2  0  0  0
   -0.2844    0.4965    0.0000 C   0  0  2  0  0  0
    0.3536   -0.0266    0.0000 O   0  0
    0.2195   -0.8407    0.0000 C   0  0
    0.8574   -1.3638    0.0000 O   0  0
   -0.5526   -1.1315    0.0000 C   0  0  1  0  0  0
   -1.3246   -1.4224    0.0000 C   0  0
   -1.4587   -2.2365    0.0000 C   0  0
   -2.2307   -2.5273    0.0000 O   0  0
   -0.8207   -2.7596    0.0000 O   0  0
   -0.9548   -3.5736    0.0000 C   0  0
   -0.8434   -0.3595    0.0000 O   0  0
   -0.2617   -1.9036    0.0000 C   0  0
    0.5524   -2.0377    0.0000 C   0  0
    0.8433   -2.8097    0.0000 C   0  0
    1.6573   -2.9438    0.0000 C   0  0
    2.4713   -3.0779    0.0000 C   0  0
    1.7914   -2.1297    0.0000 C   0  0
    1.5232   -3.7578    0.0000 O   0  0
    0.4784    0.9076    0.0000 H   0  0
  1  2  1  0
  3  2  1  0
  4  3  2  0
  4  5  1  0
  5  9  1  0
  5  6  1  1
  7  6  1  0
  8  7  1  0
  9  8  1  0
 10  9  1  0
 11 10  1  0
 12 11  1  0
 13 12  1  0
 14 13  2  0
 14 15  1  0
 16 15  1  0
 16 17  1  0
 18 14  1  0
 18 17  1  0
 19 18  2  0
 19 20  1  0
 20 12  2  0
 21  5  1  0
 21 20  1  0
  3 22  1  0
 22 21  1  0
 22 23  1  6
 24 23  1  0
 24 26  1  0
 24 25  2  0
 26 33  1  0
 26 27  1  0
 27 28  1  0
 28 30  1  0
 28 29  2  0
 31 30  1  0
 26 32  1  6
 33 34  1  0
 34 35  1  0
 35 36  1  0
 36 39  1  0
 36 37  1  0
 36 38  1  0
 21 40  1  1
M  END
>  <MOLREGNO>
69277

>  <CHEMBLID>
CHEMBL46286

>  <SYNONYMS>
OMACETAXINE MEPESUCCINATE | SYNRIBO | CGX-635 | HOMOHARRINGTONINE

>  <MAX_PHASE>
4

>  <MOLWEIGHT>
545.62

>  <ALOGP>
2.42

>  <PSA>
123.99

>  <HBA>
10

>  <HBD>
2

>  <RO5>
1

>  <RTB>
11

>  <RO3>
N

>  <ACD_MOST_APKA>
11.6

>  <ACD_MOST_BPKA>
6.38

>  <ACD_LOGP>
2.09

>  <ACD_LOGD>
2.06

>  <AROMATIC_RINGS>
1

>  <HEAVY_ATOMS>
39

>  <QED_WEIGHTED>
.4

>  <HBA_LIPINSKI>
10

>  <HBD_LIPINSKI>
2

>  <NUM_LIPINSKI_RO5_VIOLATIONS>
0

>  <MW_MONOISOTOPIC>
545.2625

>  <MOLECULAR_SPECIES>
NEUTRAL

>  <FULL_MOLFORMULA>
C29H39NO9

$$$$

  SciTegic01161211222D

 47 52  0  0  0  0            999 V2000
   -1.7429   -4.6672    0.0000 C   0  0
   -1.7440   -5.4967    0.0000 C   0  0
   -1.0268   -5.9127    0.0000 C   0  0
   -1.0286   -4.2556    0.0000 C   0  0
   -0.3109   -4.6637    0.0000 C   0  0
   -0.3113   -5.4930    0.0000 C   0  0
    0.4783   -5.7513    0.0000 N   0  0
    0.4780   -4.4103    0.0000 C   0  0
    0.9581   -5.0759    0.0000 C   0  0
    1.6252   -3.5765    0.0000 C   0  0
    0.8064   -3.6601    0.0000 C   0  0
    2.1094   -4.2422    0.0000 N   0  0
    1.7723   -4.9873    0.0000 C   0  0  2  0  0  0
    2.2491   -5.6468    0.0000 C   0  0
    2.9192   -4.1564    0.0000 C   0  0
    3.3941   -4.8218    0.0000 C   0  0  2  0  0  0
    3.0597   -5.5600    0.0000 C   0  0  1  0  0  0
    3.5333   -6.2191    0.0000 C   0  0  1  0  0  0
    4.3438   -6.1417    0.0000 C   0  0  2  0  0  0
    4.6779   -5.3996    0.0000 C   0  0  1  0  0  0
    4.2020   -4.7343    0.0000 C   0  0
    5.5050   -5.3899    0.0000 O   0  0
    5.9123   -4.6683    0.0000 C   0  0
    6.7393   -4.6588    0.0000 C   0  0
    5.4884   -3.9605    0.0000 O   0  0
    7.1544   -5.3731    0.0000 C   0  0
    7.9807   -5.3638    0.0000 C   0  0
    8.3888   -4.6417    0.0000 C   0  0
    7.9605   -3.9274    0.0000 C   0  0
    7.1356   -3.9402    0.0000 C   0  0
    8.3610   -3.2115    0.0000 O   0  0
    7.9387   -2.5010    0.0000 C   0  0
    9.2107   -4.6317    0.0000 O   0  0
    9.6128   -3.9096    0.0000 C   0  0
    8.4009   -6.0717    0.0000 O   0  0
    9.2279   -6.0625    0.0000 C   0  0
    1.3549   -5.7022    0.0000 H   0  0
    4.8223   -6.8154    0.0000 O   0  0
    5.6455   -6.7356    0.0000 C   0  0
    3.1093   -6.9311    0.0000 C   0  0
    2.2823   -6.9214    0.0000 O   0  0
    3.5166   -7.6527    0.0000 O   0  0
    1.8625   -7.6333    0.0000 C   0  0
    3.8028   -4.1021    0.0000 H   0  0
    2.6433   -6.2716    0.0000 H   0  0
   -2.4592   -5.9080    0.0000 O   0  0
   -2.4599   -6.7350    0.0000 C   0  0
  5  6  1  0
 20 22  1  1
  8 11  1  0
 22 23  1  0
  9 13  1  0
 23 24  1  0
 12 10  1  0
 23 25  2  0
 10 11  1  0
 24 26  2  0
 12 13  1  0
 26 27  1  0
 27 28  2  0
  2  3  1  0
 28 29  1  0
  3  6  2  0
 29 30  2  0
 30 24  1  0
  8  5  1  0
 12 15  1  0
 31 32  1  0
 29 31  1  0
 13 14  1  0
 14 17  1  0
 33 34  1  0
 28 33  1  0
 16 15  1  0
 16 17  1  0
 35 36  1  0
 27 35  1  0
  6  7  1  0
 13 37  1  1
  7  9  1  0
 19 38  1  6
  8  9  2  0
 38 39  1  0
  1  2  2  0
 18 40  1  1
  5  4  2  0
 40 41  1  0
  4  1  1  0
 40 42  2  0
 16 21  1  0
 41 43  1  0
 17 18  1  0
 16 44  1  6
 18 19  1  0
 17 45  1  6
 19 20  1  0
 20 21  1  0
 46 47  1  0
  2 46  1  0
M  END
>  <MOLREGNO>
43952

>  <CHEMBLID>
CHEMBL772

>  <SYNONYMS>
Serpate | Serpasil | Rau-sed | Reserpine | Sandril | Serpivite | Serpanray | Serpalan | Hiserpia

>  <MAX_PHASE>
4

>  <MOLWEIGHT>
608.68

>  <ALOGP>
4.24

>  <PSA>
117.78

>  <HBA>
10

>  <HBD>
1

>  <RO5>
1

>  <RTB>
10

>  <RO3>
N

>  <ACD_MOST_APKA>


>  <ACD_MOST_BPKA>
7.25

>  <ACD_LOGP>
4.45

>  <ACD_LOGD>
4.22

>  <AROMATIC_RINGS>
3

>  <HEAVY_ATOMS>
44

>  <QED_WEIGHTED>
.34

>  <HBA_LIPINSKI>
11

>  <HBD_LIPINSKI>
1

>  <NUM_LIPINSKI_RO5_VIOLATIONS>
1

>  <MW_MONOISOTOPIC>
608.2734

>  <MOLECULAR_SPECIES>
NEUTRAL

>  <FULL_MOLFORMULA>
C33H40N2O9

$$$$

  SciTegic01161211212D

 36 41  0  0  0  0            999 V2000
    1.3458   -3.5792    0.0000 O   0  0
    1.3458   -4.4042    0.0000 C   0  0  2  0  0  0
    2.0579   -4.8125    0.0000 C   0  0
    2.7699   -4.4042    0.0000 C   0  0
    2.7699   -3.5792    0.0000 C   0  0  1  0  0  0
    2.0579   -3.1625    0.0000 C   0  0
   -4.2958   -6.3125    0.0000 C   0  0
   -4.2958   -7.1375    0.0000 C   0  0  1  0  0  0
   -3.5838   -7.5458    0.0000 C   0  0
   -3.5838   -5.8958    0.0000 C   0  0
   -2.8718   -6.3125    0.0000 C   0  0  2  0  0  0
   -2.8707   -7.1375    0.0000 C   0  0  2  0  0  0
   -2.1597   -7.5468    0.0000 C   0  0
   -1.4451   -7.1357    0.0000 C   0  0
   -2.8792   -5.4875    0.0000 C   0  0
   -2.1618   -5.8968    0.0000 C   0  0  2  0  0  0
   -1.4443   -6.3113    0.0000 C   0  0  2  0  0  0
   -1.4455   -4.6569    0.0000 C   0  0
   -2.1655   -5.0704    0.0000 C   0  0
   -0.7280   -5.0714    0.0000 C   0  0  1  0  0  0
   -0.7311   -5.9009    0.0000 C   0  0  1  0  0  0
    0.0568   -6.1602    0.0000 C   0  0
    0.0619   -4.8182    0.0000 C   0  0  2  0  0  0
    0.5482   -5.4942    0.0000 C   0  0  1  0  0  0
    1.3415   -5.2405    0.0000 O   0  0
    0.5545   -4.1467    0.0000 C   0  0  2  0  0  0
   -0.7333   -4.2458    0.0000 C   0  0
    0.3032   -3.3609    0.0000 C   0  0
    3.4855   -3.1688    0.0000 C   0  0
   -5.0097   -7.5510    0.0000 O   0  0
   -2.8750   -7.9583    0.0000 H   0  0
   -2.1667   -6.7208    0.0000 H   0  0
   -1.4500   -5.4833    0.0000 H   0  0
   -0.1583   -5.6125    0.0000 H   0  0
   -0.7375   -6.7250    0.0000 H   0  0
    0.9542   -6.2042    0.0000 H   0  0
  2  3  1  0
  7 10  1  0
 16 19  1  0
 17 21  1  0
 20 18  1  0
 18 19  1  0
 20 21  1  0
  8  9  1  0
  9 12  1  0
 11 10  1  0
 21 22  1  0
 22 24  1  0
 23 20  1  0
 23 24  1  0
 11 12  1  0
  3  4  1  0
  4  5  1  0
  5  6  1  0
 24 25  1  0
 25  2  1  0
  2 26  1  0
 26 23  1  0
  7  8  1  0
 20 27  1  1
 11 16  1  0
 26 28  1  6
 12 13  1  0
  5 29  1  1
 13 14  1  0
  8 30  1  1
 14 17  1  0
 12 31  1  1
 16 32  1  6
 11 15  1  1
 17 33  1  1
 16 17  1  0
 23 34  1  6
  2  1  1  6
 21 35  1  6
  1  6  1  0
 24 36  1  6
M  END
>  <MOLREGNO>
647382

>  <CHEMBLID>
CHEMBL1171146

>  <SYNONYMS>
Sarsasapogenin

>  <MAX_PHASE>
0

>  <MOLWEIGHT>
416.64

>  <ALOGP>
4.88

>  <PSA>
38.69

>  <HBA>
3

>  <HBD>
1

>  <RO5>
0

>  <RTB>
0

>  <RO3>
N

>  <ACD_MOST_APKA>


>  <ACD_MOST_BPKA>


>  <ACD_LOGP>
7.05

>  <ACD_LOGD>
7.05

>  <AROMATIC_RINGS>
0

>  <HEAVY_ATOMS>
30

>  <QED_WEIGHTED>
.61

>  <HBA_LIPINSKI>
3

>  <HBD_LIPINSKI>
1

>  <NUM_LIPINSKI_RO5_VIOLATIONS>
0

>  <MW_MONOISOTOPIC>
416.329

>  <MOLECULAR_SPECIES>
NEUTRAL

>  <FULL_MOLFORMULA>
C27H44O3

$$$$

  SciTegic10191216002D

 11 11  0  0  0  0            999 V2000
   11.0011    1.5887    0.0000 C   0  0
   11.0011    0.7633    0.0000 C   0  0
   11.7142    0.3526    0.0000 C   0  0
   12.4230    0.7633    0.0000 C   0  0
   12.4230    1.5887    0.0000 C   0  0
   11.7142    2.0036    0.0000 C   0  0
   11.7142   -0.4729    0.0000 C   0  0
   10.9986   -0.8836    0.0000 C   0  0
   12.4255   -0.8836    0.0000 C   0  0
   11.7142    2.8291    0.0000 C   0  0
   13.1378    0.3475    0.0000 O   0  0
  4  5  1  0
  5  6  1  0
  3  7  1  0
  1  2  1  0
  7  8  1  0
  1  6  1  0
  7  9  1  0
  2  3  1  0
  6 10  1  0
  3  4  1  0
  4 11  1  0
M  END
>  <MOLREGNO>
425650

>  <CHEMBLID>
CHEMBL256087

>  <SYNONYMS>
MENTHOL | FISHERMAN'S FRIEND LOZENGES | DL-MENTHOL | THERAPEUTIC MINERAL ICE

>  <MAX_PHASE>
4

>  <MOLWEIGHT>
156.27

>  <ALOGP>
2.78

>  <PSA>
20.23

>  <HBA>
1

>  <HBD>
1

>  <RO5>
0

>  <RTB>
1

>  <RO3>
Y

>  <ACD_MOST_APKA>


>  <ACD_MOST_BPKA>


>  <ACD_LOGP>
3.22

>  <ACD_LOGD>
3.22

>  <AROMATIC_RINGS>
0

>  <HEAVY_ATOMS>
11

>  <QED_WEIGHTED>
.62

>  <HBA_LIPINSKI>
1

>  <HBD_LIPINSKI>
1

>  <NUM_LIPINSKI_RO5_VIOLATIONS>
0

>  <MW_MONOISOTOPIC>
156.1514

>  <MOLECULAR_SPECIES>
NEUTRAL

>  <FULL_MOLFORMULA>
C10H20O

$$$$

  SciTegic01161211232D

 11 11  0  0  0  0            999 V2000
   12.7292  -22.7917    0.0000 C   0  0  2  0  0  0
   12.7292  -23.6167    0.0000 C   0  0
   13.4412  -24.0250    0.0000 C   0  0  1  0  0  0
   14.1532  -23.6167    0.0000 C   0  0
   14.1532  -22.7917    0.0000 C   0  0
   13.4412  -22.3750    0.0000 C   0  0  1  0  0  0
   13.4412  -21.5500    0.0000 C   0  0
   14.1557  -21.1375    0.0000 C   0  0
   12.7267  -21.1375    0.0000 C   0  0
   13.4412  -24.8500    0.0000 C   0  0
   12.0135  -22.3813    0.0000 O   0  0
  4  5  1  0
  5  6  1  0
  6  7  1  6
  1  2  1  0
  7  8  1  0
  1  6  1  0
  7  9  1  0
  2  3  1  0
  3 10  1  1
  3  4  1  0
  1 11  1  1
M  END
>  <MOLREGNO>
445611

>  <CHEMBLID>
CHEMBL470670

>  <SYNONYMS>
L-MENTHOL | LEVOMENTHOL | Leavo-menthol

>  <MAX_PHASE>
0

>  <MOLWEIGHT>
156.27

>  <ALOGP>
2.78

>  <PSA>
20.23

>  <HBA>
1

>  <HBD>
1

>  <RO5>
0

>  <RTB>
1

>  <RO3>
Y

>  <ACD_MOST_APKA>


>  <ACD_MOST_BPKA>


>  <ACD_LOGP>
3.22

>  <ACD_LOGD>
3.22

>  <AROMATIC_RINGS>
0

>  <HEAVY_ATOMS>
11

>  <QED_WEIGHTED>
.62

>  <HBA_LIPINSKI>
1

>  <HBD_LIPINSKI>
1

>  <NUM_LIPINSKI_RO5_VIOLATIONS>
0

>  <MW_MONOISOTOPIC>
156.1514

>  <MOLECULAR_SPECIES>
NEUTRAL

>  <FULL_MOLFORMULA>
C10H20O

$$$$

  SciTegic01161211222D

 15 16  0  0  0  0            999 V2000
   12.9584   -3.9312    0.0000 C   0  0
   12.9573   -4.7582    0.0000 C   0  0
   13.6717   -5.1708    0.0000 C   0  0
   13.6699   -3.5186    0.0000 C   0  0
   14.3849   -3.9276    0.0000 C   0  0
   14.3837   -4.7556    0.0000 C   0  0
   15.0963   -5.1684    0.0000 O   0  0
   15.8146   -4.7577    0.0000 C   0  0
   15.8158   -3.9296    0.0000 C   0  0
   15.0986   -3.5122    0.0000 C   0  0
   16.5275   -5.1720    0.0000 O   0  0
   12.2442   -3.5191    0.0000 O   0  0
   12.2440   -2.6946    0.0000 C   0  0
   12.2428   -5.1699    0.0000 O   0  0
   12.2421   -5.9944    0.0000 C   0  0
  5  4  2  0
  4  1  1  0
  5 10  1  0
  6  7  1  0
  7  8  1  0
  8  9  1  0
  9 10  2  0
  5  6  1  0
  8 11  2  0
  1 12  1  0
  2  3  1  0
 12 13  1  0
  3  6  2  0
  2 14  1  0
  1  2  2  0
 14 15  1  0
M  END
>  <MOLREGNO>
184936

>  <CHEMBLID>
CHEMBL325864

>  <SYNONYMS>
6,7-Dimethoxycoumarin | Aesculetin Dimethyl Ether | 6,7-Dimethylcoumarine | Scoparone

>  <MAX_PHASE>
0

>  <MOLWEIGHT>
206.19

>  <ALOGP>
1.87

>  <PSA>
44.76

>  <HBA>
4

>  <HBD>
0

>  <RO5>
0

>  <RTB>
2

>  <RO3>
N

>  <ACD_MOST_APKA>


>  <ACD_MOST_BPKA>


>  <ACD_LOGP>
1.33

>  <ACD_LOGD>
1.33

>  <AROMATIC_RINGS>
1

>  <HEAVY_ATOMS>
15

>  <QED_WEIGHTED>
.55

>  <HBA_LIPINSKI>
4

>  <HBD_LIPINSKI>
0

>  <NUM_LIPINSKI_RO5_VIOLATIONS>
0

>  <MW_MONOISOTOPIC>
206.0579

>  <MOLECULAR_SPECIES>


>  <FULL_MOLFORMULA>
C11H10O4

$$$$

  SciTegic12231509382D

 34 40  0  0  1  0            999 V2000
   -0.6000   -1.3542    0.0000 C   0  0  2  0  0  0
   -0.6208   -2.3875    0.0000 N   0  0
   -0.3250   -1.8500    0.0000 C   0  0  1  0  0  0
   -1.2958   -2.1917    0.0000 C   0  0
    0.2792   -1.8792    0.0000 C   0  0  1  0  0  0
   -1.2958   -1.4917    0.0000 C   0  0
   -0.3333   -2.9292    0.0000 C   0  0
   -0.2875   -0.8125    0.0000 C   0  0  1  0  0  0
    0.6125   -1.3750    0.0000 C   0  0  2  0  0  0
   -0.6833   -0.3375    0.0000 N   0  0
    0.5750   -2.4042    0.0000 C   0  0  2  0  0  0
    1.1667   -1.2917    0.0000 C   0  0
    0.2542   -2.9542    0.0000 C   0  0
   -1.9083   -2.5500    0.0000 C   0  0
    0.3000   -0.8292    0.0000 C   0  0
   -1.9083   -1.1292    0.0000 C   0  0
    0.6000   -0.1667    0.0000 C   0  0
   -1.2000   -1.2125    0.0000 C   0  0
   -2.5208   -2.1917    0.0000 C   0  0
   -2.5208   -1.4917    0.0000 C   0  0
   -1.2583   -0.5750    0.0000 C   0  0
    1.1417   -2.5250    0.0000 O   0  0
   -0.6500   -3.4667    0.0000 O   0  0
    1.5792   -1.6292    0.0000 C   0  0
    1.5792   -2.1792    0.0000 C   0  0
   -3.1000   -2.5250    0.0000 O   0  0
   -3.1000   -1.1542    0.0000 O   0  0
   -2.9750   -0.5042    0.0000 C   0  0
   -2.9750   -3.1792    0.0000 C   0  0
    0.1629   -2.7229    0.0000 H   0  0
   -0.2460   -2.7302    0.0000 H   0  0
    1.0482   -0.4749    0.0000 H   0  0
    0.9794   -3.3188    0.0000 H   0  0
    0.1495    0.0870    0.0000 H   0  0
  2  3  1  0
  3  1  1  0
  4  6  2  0
  5  3  1  0
  6  1  1  0
  7  2  1  0
  8  1  1  0
  9 15  1  0
  8 10  1  0
 11  5  1  0
 12  9  1  0
 13 11  1  0
 14  4  1  0
 15  8  1  0
 16  6  1  0
 17 10  1  0
  1 18  1  1
 19 20  1  0
 20 16  2  0
 21 18  1  0
 22 11  1  0
 23  7  2  0
 24 12  2  0
 25 22  1  0
 26 19  1  0
 27 20  1  0
 28 27  1  0
 29 26  1  0
  3 30  1  1
  5 31  1  6
  9 32  1  6
 11 33  1  6
 10 21  1  0
  2  4  1  0
  5  9  1  0
 17 12  1  0
 14 19  2  0
  7 13  1  0
 24 25  1  0
  8 34  1  6
M  END
>  <MOLREGNO>
523056

>  <CHEMBLID>
CHEMBL501756

>  <SYNONYMS>
BRUCINE SULFATE | BRUCINE

>  <MAX_PHASE>
0

>  <MOLWEIGHT>
394.46

>  <ALOGP>
1.11

>  <PSA>
51.24

>  <HBA>
5

>  <HBD>
0

>  <RO5>
0

>  <RTB>
2

>  <RO3>
N

>  <ACD_MOST_APKA>
11.28

>  <ACD_MOST_BPKA>


>  <ACD_LOGP>
2.03

>  <ACD_LOGD>
2.03

>  <AROMATIC_RINGS>
1

>  <HEAVY_ATOMS>
29

>  <QED_WEIGHTED>
.7

>  <HBA_LIPINSKI>
6

>  <HBD_LIPINSKI>
0

>  <NUM_LIPINSKI_RO5_VIOLATIONS>
0

>  <MW_MONOISOTOPIC>
394.1893

>  <MOLECULAR_SPECIES>
NEUTRAL

>  <FULL_MOLFORMULA>
C23H26N2O4

$$$$

  SciTegic01161211222D

 32 35  0  0  0  0            999 V2000
    1.7089   10.4304    0.0000 C   0  0
    0.9944   10.0179    0.0000 C   0  0
    0.9944    9.1929    0.0000 C   0  0
    1.7089    8.7804    0.0000 C   0  0
    2.4234    9.1929    0.0000 C   0  0
    2.4234   10.0179    0.0000 C   0  0
    3.1379   10.4304    0.0000 O   0  0
    3.8524   10.0179    0.0000 C   0  0
    3.8524    9.1929    0.0000 C   0  0
    3.1379    8.7804    0.0000 C   0  0
    4.5669   10.4304    0.0000 C   0  0
    5.2813   10.0179    0.0000 C   0  0
    5.9958   10.4304    0.0000 C   0  0
    5.9958   11.2554    0.0000 C   0  0
    5.2813   11.6679    0.0000 C   0  0
    4.5668   11.2554    0.0000 C   0  0
    4.9868    7.6313    0.0000 C   0  0  2  0  0  0
    4.1899    7.4177    0.0000 O   0  0
    3.9764    6.6208    0.0000 C   0  0  1  0  0  0
    4.5597    6.0374    0.0000 C   0  0  2  0  0  0
    5.3566    6.2510    0.0000 C   0  0  1  0  0  0
    5.5702    7.0479    0.0000 C   0  0  1  0  0  0
    5.2446    8.7214    0.0000 O   0  0
    6.3671    7.2614    0.0000 O   0  0
    5.9400    5.6676    0.0000 O   0  0
    4.3462    5.2406    0.0000 O   0  0
    3.1795    6.4073    0.0000 C   0  0
    3.1379    7.9554    0.0000 O   0  0
    0.2800   10.4304    0.0000 O   0  0
    1.7089    7.9554    0.0000 O   0  0
    6.7103   11.6679    0.0000 O   0  0
    2.9660    5.6104    0.0000 O   0  0
  1  2  1  0
  1  6  2  0
  2  3  2  0
  3  4  1  0
  4  5  2  0
 10  5  1  0
  5  6  1  0
  6  7  1  0
  7  8  1  0
  8  9  2  0
  9 10  1  0
  8 11  1  0
 11 12  1  0
 11 16  2  0
 12 13  2  0
 13 14  1  0
 14 15  2  0
 15 16  1  0
 17 18  1  0
 22 17  1  0
 18 19  1  0
 19 20  1  0
 20 21  1  0
 21 22  1  0
 17 23  1  1
  9 23  1  0
 22 24  1  6
 21 25  1  1
 20 26  1  6
 19 27  1  1
 10 28  2  0
  2 29  1  0
  4 30  1  0
 14 31  1  0
 27 32  1  0
M  END
>  <MOLREGNO>
393083

>  <CHEMBLID>
CHEMBL233930

>  <SYNONYMS>
Kaempferol 3-O-Glucoside | Astragalin

>  <MAX_PHASE>
0

>  <MOLWEIGHT>
448.38

>  <ALOGP>
-.06

>  <PSA>
186.37

>  <HBA>
11

>  <HBD>
7

>  <RO5>
2

>  <RTB>
4

>  <RO3>
N

>  <ACD_MOST_APKA>
6.2

>  <ACD_MOST_BPKA>


>  <ACD_LOGP>
1.21

>  <ACD_LOGD>
-.39

>  <AROMATIC_RINGS>
2

>  <HEAVY_ATOMS>
32

>  <QED_WEIGHTED>
.33

>  <HBA_LIPINSKI>
11

>  <HBD_LIPINSKI>
7

>  <NUM_LIPINSKI_RO5_VIOLATIONS>
2

>  <MW_MONOISOTOPIC>
448.1006

>  <MOLECULAR_SPECIES>
ACID

>  <FULL_MOLFORMULA>
C21H20O11

$$$$

  SciTegic01161211232D

 32 35  0  0  0  0            999 V2000
    6.4771  -14.7160    0.0000 C   0  0
    6.4771  -15.5398    0.0000 C   0  0
    5.7622  -15.9517    0.0000 C   0  0
    5.7622  -16.7756    0.0000 O   0  0
    5.0473  -15.5398    0.0000 C   0  0
    4.3365  -15.9517    0.0000 C   0  0
    4.3365  -16.7756    0.0000 O   0  0
    3.6217  -15.5398    0.0000 C   0  0
    3.6217  -14.7160    0.0000 C   0  0
    2.9068  -14.3040    0.0000 O   0  0
    4.3365  -14.3040    0.0000 C   0  0
    5.0473  -14.7160    0.0000 C   0  0
    5.7622  -14.3040    0.0000 O   0  0
    7.1878  -14.3040    0.0000 C   0  0
    7.1878  -13.4802    0.0000 C   0  0
    7.9026  -13.0683    0.0000 C   0  0
    8.6175  -13.4802    0.0000 C   0  0
    9.3324  -13.0683    0.0000 O   0  0
    8.6175  -14.3040    0.0000 C   0  0
    7.9026  -14.7160    0.0000 C   0  0
    7.1878  -15.9517    0.0000 O   0  0
    7.1878  -16.7756    0.0000 C   0  0  1  0  0  0
    7.9026  -17.1875    0.0000 C   0  0  2  0  0  0
    8.6175  -16.7756    0.0000 O   0  0
    7.9026  -18.0114    0.0000 C   0  0  1  0  0  0
    8.6175  -18.4233    0.0000 O   0  0
    7.1878  -18.4233    0.0000 C   0  0  1  0  0  0
    7.1878  -19.2471    0.0000 O   0  0
    6.4771  -18.0114    0.0000 C   0  0  2  0  0  0
    6.4771  -17.1875    0.0000 O   0  0
    5.7622  -18.4233    0.0000 C   0  0
    5.7622  -19.2471    0.0000 O   0  0
  1  2  2  0
  2  3  1  0
  3  4  2  0
  3  5  1  0
  5  6  1  0
  6  7  1  0
  6  8  2  0
  8  9  1  0
  9 10  1  0
  9 11  2  0
 11 12  1  0
  5 12  2  0
 12 13  1  0
  1 13  1  0
  1 14  1  0
 14 15  1  0
 15 16  2  0
 16 17  1  0
 17 18  1  0
 17 19  2  0
 19 20  1  0
 14 20  2  0
 22 21  1  1
 22 23  1  0
 23 24  1  6
 23 25  1  0
 25 26  1  1
 25 27  1  0
 27 28  1  1
 27 29  1  0
 29 30  1  0
 29 31  1  1
 31 32  1  0
 22 30  1  0
  2 21  1  0
M  END
>  <MOLREGNO>
445254

>  <CHEMBLID>
CHEMBL453290

>  <SYNONYMS>
Trifolin

>  <MAX_PHASE>
0

>  <MOLWEIGHT>
448.38

>  <ALOGP>
-.06

>  <PSA>
186.36

>  <HBA>
11

>  <HBD>
7

>  <RO5>
2

>  <RTB>
4

>  <RO3>
N

>  <ACD_MOST_APKA>
6.2

>  <ACD_MOST_BPKA>


>  <ACD_LOGP>
1.21

>  <ACD_LOGD>
-.39

>  <AROMATIC_RINGS>
2

>  <HEAVY_ATOMS>
32

>  <QED_WEIGHTED>
.33

>  <HBA_LIPINSKI>
11

>  <HBD_LIPINSKI>
7

>  <NUM_LIPINSKI_RO5_VIOLATIONS>
2

>  <MW_MONOISOTOPIC>
448.1006

>  <MOLECULAR_SPECIES>
ACID

>  <FULL_MOLFORMULA>
C21H20O11

$$$$

  CDK    9/16/09,9:19

 35 39  0  0  0  0  0  0  0  0999 V2000
   11.6667  -20.4958    0.0000 C   0  0  0  0  0  0  0  0  0  0  0  0
   13.0907  -19.6708    0.0000 C   0  0  0  0  0  0  0  0  0  0  0  0
   14.3571  -20.0746    0.0000 C   0  0  0  0  0  0  0  0  0  0  0  0
   13.8705  -19.4128    0.0000 C   0  0  0  0  0  0  0  0  0  0  0  0
   13.0959  -20.4900    0.0000 C   0  0  0  0  0  0  0  0  0  0  0  0
   13.8778  -20.7419    0.0000 N   0  0  0  0  0  0  0  0  0  0  0  0
   14.1731  -21.5146    0.0000 C   0  0  0  0  0  0  0  0  0  0  0  0
   12.4078  -20.9491    0.0000 C   0  0  0  0  0  0  0  0  0  0  0  0
   13.7574  -22.2260    0.0000 C   0  0  0  0  0  0  0  0  0  0  0  0
   12.3387  -21.7729    0.0000 C   0  0  0  0  0  0  0  0  0  0  0  0
   12.9410  -22.3387    0.0000 C   0  0  0  0  0  0  0  0  0  0  0  0
   13.3083  -21.2833    0.0000 H   0  0  0  0  0  0  0  0  0  0  0  0
   11.6644  -19.6669    0.0000 C   0  0  0  0  0  0  0  0  0  0  0  0
   12.3787  -19.2542    0.0000 C   0  0  0  0  0  0  0  0  0  0  0  0
   12.2069  -18.4472    0.0000 C   0  0  0  0  0  0  0  0  0  0  0  0
   11.3863  -18.3612    0.0000 C   0  0  0  0  0  0  0  0  0  0  0  0
   11.0511  -19.1151    0.0000 O   0  0  0  0  0  0  0  0  0  0  0  0
   15.1831  -20.0653    0.0000 C   0  0  0  0  0  0  0  0  0  0  0  0
   15.6718  -20.7300    0.0000 O   0  0  0  0  0  0  0  0  0  0  0  0
   16.4550  -20.4707    0.0000 C   0  0  0  0  0  0  0  0  0  0  0  0
   16.4504  -19.6457    0.0000 C   0  0  0  0  0  0  0  0  0  0  0  0
   15.6644  -19.3952    0.0000 C   0  0  0  0  0  0  0  0  0  0  0  0
   14.7625  -19.3458    0.0000 H   0  0  0  0  0  0  0  0  0  0  0  0
   17.1251  -20.9519    0.0000 O   0  0  0  0  0  0  0  0  0  0  0  0
   17.1151  -19.1570    0.0000 C   0  0  0  0  0  0  0  0  0  0  0  0
   14.5667  -20.8667    0.0000 H   0  0  0  0  0  0  0  0  0  0  0  0
   13.3000  -18.8708    0.0000 H   0  0  0  0  0  0  0  0  0  0  0  0
   12.4000  -20.1208    0.0000 H   0  0  0  0  0  0  0  0  0  0  0  0
   10.9476  -20.9003    0.0000 C   0  0  0  0  0  0  0  0  0  0  0  0
   10.9383  -21.7252    0.0000 C   0  0  0  0  0  0  0  0  0  0  0  0
   11.6625  -21.3208    0.0000 H   0  0  0  0  0  0  0  0  0  0  0  0
   10.9458  -20.0750    0.0000 H   0  0  0  0  0  0  0  0  0  0  0  0
   10.9736  -17.6469    0.0000 O   0  0  0  0  0  0  0  0  0  0  0  0
   11.5750  -19.0375    0.0000 H   0  0  0  0  0  0  0  0  0  0  0  0
   12.7588  -17.8340    0.0000 C   0  0  0  0  0  0  0  0  0  0  0  0
 15 16  1  0  0  0  0 
 16 17  1  0  0  0  0 
 17 13  1  0  0  0  0 
 18 19  1  0  0  0  0 
  5  8  1  0  0  0  0 
  1  8  1  0  0  0  0 
  7  9  1  0  0  0  0 
  6  3  1  0  0  0  0 
 19 20  1  0  0  0  0 
 20 21  1  0  0  0  0 
 21 22  1  0  0  0  0 
 22 18  1  0  0  0  0 
  3 18  1  0  0  0  0 
  8 10  1  0  0  0  0 
 18 23  1  1  0  0  0 
  3  4  1  0  0  0  0 
 20 24  2  0  0  0  0 
  9 11  1  0  0  0  0 
 21 25  1  6  0  0  0 
 10 11  1  0  0  0  0 
  3 26  1  6  0  0  0 
  4  2  1  0  0  0  0 
  2 27  1  6  0  0  0 
  5 12  1  1  0  0  0 
  8 28  1  1  0  0  0 
 13 14  1  0  0  0  0 
  1 29  1  0  0  0  0 
  2 14  1  0  0  0  0 
 29 30  1  0  0  0  0 
  2  5  1  0  0  0  0 
  1 31  1  6  0  0  0 
  5  6  1  0  0  0  0 
 13 32  1  1  0  0  0 
 13  1  1  0  0  0  0 
 16 33  2  0  0  0  0 
  6  7  1  0  0  0  0 
 14 34  1  1  0  0  0 
 14 15  1  0  0  0  0 
 15 35  1  1  0  0  0 
M  END
>  <MOLREGNO>
481833

>  <CHEMBLID>
CHEMBL517375

>  <SYNONYMS>
Tuberostemonine

>  <MAX_PHASE>
0

>  <MOLWEIGHT>
375.5

>  <ALOGP>
3.6

>  <PSA>
55.84

>  <HBA>
5

>  <HBD>
0

>  <RO5>
0

>  <RTB>
2

>  <RO3>
N

>  <ACD_MOST_APKA>


>  <ACD_MOST_BPKA>
8.9

>  <ACD_LOGP>
1.04

>  <ACD_LOGD>
-.47

>  <AROMATIC_RINGS>
0

>  <HEAVY_ATOMS>
27

>  <QED_WEIGHTED>
.69

>  <HBA_LIPINSKI>
5

>  <HBD_LIPINSKI>
0

>  <NUM_LIPINSKI_RO5_VIOLATIONS>
0

>  <MW_MONOISOTOPIC>
375.241

>  <MOLECULAR_SPECIES>
BASE

>  <FULL_MOLFORMULA>
C22H33NO4

$$$$

  CDK    9/16/09,9:19

 30 32  0  0  0  0  0  0  0  0999 V2000
   -0.8961    0.0572    0.0000 O   0  0  0  0  0  0  0  0  0  0  0  0
   -0.1820   -0.3543    0.0000 C   0  0  0  0  0  0  0  0  0  0  0  0
   -0.1820   -1.1772    0.0000 C   0  0  0  0  0  0  0  0  0  0  0  0
   -0.8961   -1.5887    0.0000 O   0  0  0  0  0  0  0  0  0  0  0  0
    0.5319   -1.5887    0.0000 C   0  0  0  0  0  0  0  0  0  0  0  0
    0.5319   -2.4116    0.0000 O   0  0  0  0  0  0  0  0  0  0  0  0
    1.2460   -1.1772    0.0000 C   0  0  0  0  0  0  0  0  0  0  0  0
    1.9559   -1.5887    0.0000 O   0  0  0  0  0  0  0  0  0  0  0  0
    1.2460   -0.3543    0.0000 C   0  0  0  0  0  0  0  0  0  0  0  0
    0.5319    0.0572    0.0000 O   0  0  0  0  0  0  0  0  0  0  0  0
    1.9559    0.0572    0.0000 C   0  0  0  0  0  0  0  0  0  0  0  0
    1.9559    0.8801    0.0000 O   0  0  0  0  0  0  0  0  0  0  0  0
   -0.9140    0.8801    0.0000 C   0  0  0  0  0  0  0  0  0  0  0  0
   -1.6359    1.2775    0.0000 C   0  0  0  0  0  0  0  0  0  0  0  0
   -1.6541    2.1056    0.0000 C   0  0  0  0  0  0  0  0  0  0  0  0
   -0.9504    2.5362    0.0000 C   0  0  0  0  0  0  0  0  0  0  0  0
   -0.2242    2.1347    0.0000 C   0  0  0  0  0  0  0  0  0  0  0  0
   -0.2061    1.3066    0.0000 O   0  0  0  0  0  0  0  0  0  0  0  0
   -2.4466    2.3461    0.0000 C   0  0  0  0  0  0  0  0  0  0  0  0
   -2.9163    1.6662    0.0000 C   0  0  0  0  0  0  0  0  0  0  0  0
   -2.4168    1.0079    0.0000 C   0  0  0  0  0  0  0  0  0  0  0  0
   -1.6416    0.4530    0.0000 H   0  0  0  0  0  0  0  0  0  0  0  0
   -1.6625    2.9342    0.0000 O   0  0  0  0  0  0  0  0  0  0  0  0
   -2.2303    0.2950    0.0000 C   0  0  0  0  0  0  0  0  0  0  0  0
   -3.1378    0.5985    0.0000 O   0  0  0  0  0  0  0  0  0  0  0  0
   -3.8509    1.0205    0.0000 C   0  0  0  0  0  0  0  0  0  0  0  0
   -4.5715    0.6113    0.0000 C   0  0  0  0  0  0  0  0  0  0  0  0
   -3.8435    1.8475    0.0000 O   0  0  0  0  0  0  0  0  0  0  0  0
   -2.8677    3.0630    0.0000 O   0  0  0  0  0  0  0  0  0  0  0  0
   -0.1870    0.4696    0.0000 H   0  0  0  0  0  0  0  0  0  0  0  0
  5  6  1  6  0  0  0 
  5  7  1  0  0  0  0 
  7  8  1  1  0  0  0 
  7  9  1  0  0  0  0 
 13 14  1  0  0  0  0 
 14 15  1  0  0  0  0 
 15 16  1  0  0  0  0 
 16 17  2  0  0  0  0 
 17 18  1  0  0  0  0 
 13 18  1  0  0  0  0 
 19 20  1  0  0  0  0 
 20 21  1  0  0  0  0 
 14 21  1  0  0  0  0 
 15 19  1  0  0  0  0 
 13  1  1  1  0  0  0 
  9 10  1  0  0  0  0 
 14 22  1  1  0  0  0 
  9 11  1  6  0  0  0 
 15 23  1  1  0  0  0 
 11 12  1  0  0  0  0 
 21 24  1  6  0  0  0 
  2 10  1  0  0  0  0 
 21 25  1  0  0  0  0 
 25 26  1  0  0  0  0 
  2  1  1  0  0  0  0 
 26 27  1  0  0  0  0 
  2  3  1  0  0  0  0 
 26 28  2  0  0  0  0 
  3  4  1  1  0  0  0 
 19 29  1  1  0  0  0 
  3  5  1  0  0  0  0 
  2 30  1  1  0  0  0 
M  END
>  <MOLREGNO>
462136

>  <CHEMBLID>
CHEMBL523290

>  <SYNONYMS>
8-Acetylharpagide | 8-O-Acetylharpagide

>  <MAX_PHASE>
0

>  <MOLWEIGHT>
406.38

>  <ALOGP>
-3.52

>  <PSA>
175.36

>  <HBA>
11

>  <HBD>
6

>  <RO5>
2

>  <RTB>
5

>  <RO3>
N

>  <ACD_MOST_APKA>
11.88

>  <ACD_MOST_BPKA>


>  <ACD_LOGP>
-2.96

>  <ACD_LOGD>
-2.96

>  <AROMATIC_RINGS>
0

>  <HEAVY_ATOMS>
28

>  <QED_WEIGHTED>
.25

>  <HBA_LIPINSKI>
11

>  <HBD_LIPINSKI>
6

>  <NUM_LIPINSKI_RO5_VIOLATIONS>
2

>  <MW_MONOISOTOPIC>
406.1475

>  <MOLECULAR_SPECIES>
NEUTRAL

>  <FULL_MOLFORMULA>
C17H26O11

$$$$

  SciTegic12231509382D

 21 23  0  0  0  0            999 V2000
    0.5444    0.4321    0.0000 O   0  0
   -0.8846   -1.2179    0.0000 O   0  0
    0.5444   -2.0429    0.0000 O   0  0
    3.4022    0.4321    0.0000 O   0  0
   -3.0280    0.0196    0.0000 O   0  0
   -3.0280    1.6696    0.0000 O   0  0
   -0.1701    0.0196    0.0000 C   0  0
    1.2588   -0.8054    0.0000 C   0  0
    1.2588    0.0196    0.0000 C   0  0
   -0.1701   -0.8054    0.0000 C   0  0
    0.5444   -1.2179    0.0000 C   0  0
   -0.8846    0.4321    0.0000 C   0  0
    1.9733    0.4321    0.0000 C   0  0
    1.9733   -1.2179    0.0000 C   0  0
   -1.5991    0.0196    0.0000 C   0  0
    2.6878    0.0196    0.0000 C   0  0
   -0.8846    1.2571    0.0000 C   0  0
   -2.3135    0.4321    0.0000 C   0  0
    2.6878   -0.8054    0.0000 C   0  0
   -2.3135    1.2571    0.0000 C   0  0
   -1.5991    1.6696    0.0000 C   0  0
  1  7  1  0
  1  9  1  0
  2 10  1  0
  3 11  2  0
  4 16  1  0
  5 18  1  0
  6 20  1  0
  7 10  2  0
  7 12  1  0
  8  9  1  0
  8 11  1  0
  8 14  2  0
  9 13  2  0
 10 11  1  0
 12 15  1  0
 12 17  2  0
 13 16  1  0
 14 19  1  0
 15 18  2  0
 16 19  2  0
 17 21  1  0
 18 20  1  0
 20 21  2  0
M  END
>  <MOLREGNO>
42756

>  <CHEMBLID>
CHEMBL31574

>  <SYNONYMS>
NSC-407010

>  <MAX_PHASE>
0

>  <MOLWEIGHT>
286.24

>  <ALOGP>
1.87

>  <PSA>
107.22

>  <HBA>
6

>  <HBD>
4

>  <RO5>
0

>  <RTB>
1

>  <RO3>
N

>  <ACD_MOST_APKA>
6.83

>  <ACD_MOST_BPKA>


>  <ACD_LOGP>
1.97

>  <ACD_LOGD>
1.33

>  <AROMATIC_RINGS>
2

>  <HEAVY_ATOMS>
21

>  <QED_WEIGHTED>
.6

>  <HBA_LIPINSKI>
6

>  <HBD_LIPINSKI>
4

>  <NUM_LIPINSKI_RO5_VIOLATIONS>
0

>  <MW_MONOISOTOPIC>
286.0477

>  <MOLECULAR_SPECIES>
NEUTRAL

>  <FULL_MOLFORMULA>
C15H10O6

$$$$

          11280715022D 1   1.00000     0.00000     0

 23 24  0     1  0            999 V2000
    9.1125   -3.1625    0.0000 C   0  0  1  0  0  0           0  0  0
    9.1042   -3.9875    0.0000 C   0  0  2  0  0  0           0  0  0
    9.8250   -2.7500    0.0000 C   0  0  2  0  0  0           0  0  0
   10.5375   -3.1667    0.0000 C   0  0  1  0  0  0           0  0  0
    8.4000   -4.4000    0.0000 C   0  0  3  0  0  0           0  0  0
    9.8167   -4.4000    0.0000 C   0  0  0  0  0  0           0  0  0
    9.8167   -1.9250    0.0000 C   0  0  0  0  0  0           0  0  0
   10.5375   -3.9917    0.0000 C   0  0  0  0  0  0           0  0  0
   11.2417   -1.9125    0.0000 C   0  0  1  0  0  0           0  0  0
   11.9542   -1.4917    0.0000 C   0  0  0  0  0  0           0  0  0
   12.6667   -1.9000    0.0000 C   0  0  0  0  0  0           0  0  0
   10.5167   -1.5042    0.0000 C   0  0  0  0  0  0           0  0  0
    8.4000   -2.7500    0.0000 C   0  0  0  0  0  0           0  0  0
   11.3292   -3.3792    0.0000 O   0  0  0  0  0  0           0  0  0
    9.1042   -2.3375    0.0000 C   0  0  0  0  0  0           0  0  0
   11.9542   -2.3250    0.0000 O   0  0  0  0  0  0           0  0  0
    7.6875   -3.9875    0.0000 C   0  0  0  0  0  0           0  0  0
    7.6875   -3.1625    0.0000 C   0  0  0  0  0  0           0  0  0
   11.1167   -2.5792    0.0000 C   0  0  0  0  0  0           0  0  0
    7.6792   -4.8042    0.0000 C   0  0  0  0  0  0           0  0  0
    8.6125   -5.1917    0.0000 C   0  0  0  0  0  0           0  0  0
   10.5167   -2.3167    0.0000 C   0  0  0  0  0  0           0  0  0
    9.1000   -4.8125    0.0000 H   0  0  0  0  0  0           0  0  0
  2  1  1  0     0  0
  3  1  1  0     0  0
  4  3  1  0     0  0
  5  2  1  0     0  0
  6  2  1  0     0  0
  3  7  1  1     0  0
  8  4  1  0     0  0
  9 12  1  0     0  0
 10  9  1  0     0  0
 11 10  2  0     0  0
 12  7  1  0     0  0
 13  1  1  0     0  0
  4 14  1  6     0  0
  1 15  1  1     0  0
  9 16  1  6     0  0
 17 18  1  0     0  0
 18 13  1  0     0  0
  4 19  1  1     0  0
 20  5  1  0     0  0
 21  5  1  0     0  0
  9 22  1  1     0  0
  2 23  1  6     0  0
 17  5  1  0     0  0
  6  8  1  0     0  0
M  END
>  <MOLREGNO>
95382

>  <CHEMBLID>
CHEMBL294740

>  <SYNONYMS>
Sclareol

>  <MAX_PHASE>
0

>  <MOLWEIGHT>
308.5

>  <ALOGP>
4.27

>  <PSA>
40.46

>  <HBA>
2

>  <HBD>
2

>  <RO5>
0

>  <RTB>
4

>  <RO3>
N

>  <ACD_MOST_APKA>


>  <ACD_MOST_BPKA>


>  <ACD_LOGP>
5.23

>  <ACD_LOGD>
5.23

>  <AROMATIC_RINGS>
0

>  <HEAVY_ATOMS>
22

>  <QED_WEIGHTED>
.76

>  <HBA_LIPINSKI>
2

>  <HBD_LIPINSKI>
2

>  <NUM_LIPINSKI_RO5_VIOLATIONS>
0

>  <MW_MONOISOTOPIC>
308.2715

>  <MOLECULAR_SPECIES>
NEUTRAL

>  <FULL_MOLFORMULA>
C20H36O2

$$$$

  CDK    9/16/09,9:20

 13 14  0  0  0  0  0  0  0  0999 V2000
    8.0982   -8.3877    0.0000 C   0  0  0  0  0  0  0  0  0  0  0  0
    8.0969   -9.2131    0.0000 C   0  0  0  0  0  0  0  0  0  0  0  0
    8.8080   -9.6248    0.0000 C   0  0  0  0  0  0  0  0  0  0  0  0
    8.8060   -7.9760    0.0000 C   0  0  0  0  0  0  0  0  0  0  0  0
    9.5222   -8.3837    0.0000 C   0  0  0  0  0  0  0  0  0  0  0  0
    9.5214   -9.2105    0.0000 C   0  0  0  0  0  0  0  0  0  0  0  0
   10.2330   -9.6224    0.0000 O   0  0  0  0  0  0  0  0  0  0  0  0
   10.9500   -9.2120    0.0000 C   0  0  0  0  0  0  0  0  0  0  0  0
   10.9509   -8.3853    0.0000 C   0  0  0  0  0  0  0  0  0  0  0  0
   10.2348   -7.9687    0.0000 C   0  0  0  0  0  0  0  0  0  0  0  0
   11.6616   -9.6251    0.0000 O   0  0  0  0  0  0  0  0  0  0  0  0
    7.3838   -9.6234    0.0000 O   0  0  0  0  0  0  0  0  0  0  0  0
    8.8085  -10.4476    0.0000 O   0  0  0  0  0  0  0  0  0  0  0  0
  3  6  2  0  0  0  0 
  1  2  2  0  0  0  0 
  5  4  2  0  0  0  0 
  4  1  1  0  0  0  0 
  5 10  1  0  0  0  0 
  6  7  1  0  0  0  0 
  7  8  1  0  0  0  0 
  8  9  1  0  0  0  0 
  9 10  2  0  0  0  0 
  5  6  1  0  0  0  0 
  8 11  2  0  0  0  0 
  2 12  1  0  0  0  0 
  2  3  1  0  0  0  0 
  3 13  1  0  0  0  0 
M  END
>  <MOLREGNO>
390097

>  <CHEMBLID>
CHEMBL244948

>  <SYNONYMS>


>  <MAX_PHASE>
0

>  <MOLWEIGHT>
178.14

>  <ALOGP>
1.42

>  <PSA>
66.76

>  <HBA>
4

>  <HBD>
2

>  <RO5>
0

>  <RTB>
0

>  <RO3>
N

>  <ACD_MOST_APKA>
7.61

>  <ACD_MOST_BPKA>


>  <ACD_LOGP>
.88

>  <ACD_LOGD>
.57

>  <AROMATIC_RINGS>
1

>  <HEAVY_ATOMS>
13

>  <QED_WEIGHTED>
.36

>  <HBA_LIPINSKI>
4

>  <HBD_LIPINSKI>
2

>  <NUM_LIPINSKI_RO5_VIOLATIONS>
0

>  <MW_MONOISOTOPIC>
178.0266

>  <MOLECULAR_SPECIES>
NEUTRAL

>  <FULL_MOLFORMULA>
C9H6O4

$$$$

  SciTegic11291317242D

 21 23  0  0  0  0            999 V2000
    4.9335   -7.3004    0.0000 C   0  0
    4.7197   -6.5028    0.0000 C   0  0
    4.3530   -7.8878    0.0000 C   0  0
    3.5566   -7.6694    0.0000 C   0  0
    2.1767   -8.0329    0.0000 C   0  0
    2.9746   -8.2520    0.0000 C   0  0
    2.1906   -5.9184    0.0000 O   0  0
    1.3742   -6.0379    0.0000 C   0  0
    1.2359   -6.8512    0.0000 C   0  0
    0.4957   -7.2175    0.0000 C   0  0
    0.7972   -5.4471    0.0000 O   0  0
    3.3463   -6.8708    0.0000 C   0  0  1  0  0  0
    3.9228   -6.2953    0.0000 C   0  0  2  0  0  0
    3.1361   -6.0839    0.0000 O   0  0
    4.1444   -5.4998    0.0000 C   0  0
    2.8443   -7.3204    0.0000 C   0  0
    4.1509   -7.0870    0.0000 H   0  0
    1.9664   -7.2343    0.0000 C   0  0  1  0  0  0
    1.3830   -7.8177    0.0000 H   0  0
    2.5564   -6.6578    0.0000 C   0  0  2  0  0  0
    1.7595   -6.4442    0.0000 H   0  0
  1  3  1  0
 20  7  1  0
  7  8  1  0
  8  9  1  0
 18  9  1  0
  4  6  1  0
  9 10  2  0
 20 12  1  0
  8 11  2  0
 12 13  1  0
 13 14  1  0
 12 14  1  0
 18  5  1  0
  5  6  1  0
 20 18  1  0
 13  2  1  0
 13 15  1  1
  4  3  2  0
  4 16  1  0
  1  2  1  0
 12 17  1  1
 18 19  1  6
 20 21  1  1
M  END
>  <MOLREGNO>
504633

>  <CHEMBLID>
CHEMBL540445

>  <SYNONYMS>
Parthenolide

>  <MAX_PHASE>
0

>  <MOLWEIGHT>
248.32

>  <ALOGP>
2.92

>  <PSA>
38.83

>  <HBA>
3

>  <HBD>
0

>  <RO5>
0

>  <RTB>
0

>  <RO3>
Y

>  <ACD_MOST_APKA>


>  <ACD_MOST_BPKA>


>  <ACD_LOGP>
1.02

>  <ACD_LOGD>
1.02

>  <AROMATIC_RINGS>
0

>  <HEAVY_ATOMS>
18

>  <QED_WEIGHTED>
.38

>  <HBA_LIPINSKI>
3

>  <HBD_LIPINSKI>
0

>  <NUM_LIPINSKI_RO5_VIOLATIONS>
0

>  <MW_MONOISOTOPIC>
248.1412

>  <MOLECULAR_SPECIES>


>  <FULL_MOLFORMULA>
C15H20O3

$$$$

  CDK    9/16/09,9:54

 27 29  0  0  0  0  0  0  0  0999 V2000
   -1.0766   -5.7537    0.0000 C   0  0  0  0  0  0  0  0  0  0  0  0
   -1.0766   -6.5829    0.0000 C   0  0  0  0  0  0  0  0  0  0  0  0
    0.3562   -5.7537    0.0000 C   0  0  0  0  0  0  0  0  0  0  0  0
   -0.3624   -5.3369    0.0000 O   0  0  0  0  0  0  0  0  0  0  0  0
    0.3562   -6.5829    0.0000 C   0  0  0  0  0  0  0  0  0  0  0  0
   -0.3645   -6.9917    0.0000 C   0  0  0  0  0  0  0  0  0  0  0  0
   -0.3707   -7.8156    0.0000 C   0  0  0  0  0  0  0  0  0  0  0  0
    0.3419   -8.2371    0.0000 C   0  0  0  0  0  0  0  0  0  0  0  0
    1.0626   -7.8283    0.0000 O   0  0  0  0  0  0  0  0  0  0  0  0
    1.0706   -6.9981    0.0000 C   0  0  0  0  0  0  0  0  0  0  0  0
    1.0708   -5.3422    0.0000 O   0  0  0  0  0  0  0  0  0  0  0  0
    0.3345   -9.0617    0.0000 O   0  0  0  0  0  0  0  0  0  0  0  0
   -1.0886   -8.2215    0.0000 C   0  0  0  0  0  0  0  0  0  0  0  0
   -1.7989   -7.8028    0.0000 C   0  0  0  0  0  0  0  0  0  0  0  0
   -0.3834   -9.4675    0.0000 C   0  0  0  0  0  0  0  0  0  0  0  0
   -1.0941   -9.0445    0.0000 O   0  0  0  0  0  0  0  0  0  0  0  0
   -1.8097   -9.4468    0.0000 C   0  0  0  0  0  0  0  0  0  0  0  0
   -1.8215  -10.2717    0.0000 C   0  0  0  0  0  0  0  0  0  0  0  0
   -1.1112  -10.6926    0.0000 C   0  0  0  0  0  0  0  0  0  0  0  0
   -0.3893  -10.2886    0.0000 C   0  0  0  0  0  0  0  0  0  0  0  0
    0.3204  -10.7084    0.0000 O   0  0  0  0  0  0  0  0  0  0  0  0
   -1.1215  -11.5172    0.0000 O   0  0  0  0  0  0  0  0  0  0  0  0
   -2.5407  -10.6748    0.0000 O   0  0  0  0  0  0  0  0  0  0  0  0
   -2.5185   -9.0254    0.0000 C   0  0  0  0  0  0  0  0  0  0  0  0
   -3.2379   -9.4285    0.0000 O   0  0  0  0  0  0  0  0  0  0  0  0
   -0.3894   -8.6398    0.0000 H   0  0  0  0  0  0  0  0  0  0  0  0
   -1.0811   -7.3984    0.0000 H   0  0  0  0  0  0  0  0  0  0  0  0
  7 13  1  6  0  0  0 
  1  4  1  0  0  0  0 
 13 14  2  0  0  0  0 
  2  6  1  0  0  0  0 
 12 15  1  0  0  0  0 
 15 16  1  0  0  0  0 
  5  3  1  0  0  0  0 
  3  4  1  0  0  0  0 
  5 10  2  0  0  0  0 
  6  7  1  0  0  0  0 
  7  8  1  0  0  0  0 
 15 20  1  0  0  0  0 
 16 17  1  0  0  0  0 
 17 18  1  0  0  0  0 
 18 19  1  0  0  0  0 
 19 20  1  0  0  0  0 
  8  9  1  0  0  0  0 
 20 21  1  6  0  0  0 
  9 10  1  0  0  0  0 
 19 22  1  1  0  0  0 
  5  6  1  0  0  0  0 
 18 23  1  6  0  0  0 
  3 11  2  0  0  0  0 
 17 24  1  1  0  0  0 
 24 25  1  0  0  0  0 
  8 12  1  1  0  0  0 
 15 26  1  6  0  0  0 
  1  2  1  0  0  0  0 
  6 27  1  1  0  0  0 
M  END
>  <MOLREGNO>
512595

>  <CHEMBLID>
CHEMBL456137

>  <SYNONYMS>
Sweroside

>  <MAX_PHASE>
0

>  <MOLWEIGHT>
358.34

>  <ALOGP>
-1.41

>  <PSA>
134.91

>  <HBA>
9

>  <HBD>
4

>  <RO5>
0

>  <RTB>
4

>  <RO3>
N

>  <ACD_MOST_APKA>
12.79

>  <ACD_MOST_BPKA>


>  <ACD_LOGP>
-2.66

>  <ACD_LOGD>
-2.66

>  <AROMATIC_RINGS>
0

>  <HEAVY_ATOMS>
25

>  <QED_WEIGHTED>
.35

>  <HBA_LIPINSKI>
9

>  <HBD_LIPINSKI>
4

>  <NUM_LIPINSKI_RO5_VIOLATIONS>
0

>  <MW_MONOISOTOPIC>
358.1264

>  <MOLECULAR_SPECIES>
NEUTRAL

>  <FULL_MOLFORMULA>
C16H22O9

$$$$

  SciTegic01181116592D

 19 21  0  0  0  0            999 V2000
    6.2968   -6.9973    0.0000 C   0  0  1  0  0  0
    7.2851   -6.8680    0.0000 C   0  0
    7.2851   -6.0424    0.0000 C   0  0
    5.5378   -7.2725    0.0000 C   0  0
    5.8630   -6.6596    0.0000 C   0  0  1  0  0  0
    7.9981   -5.6295    0.0000 N   0  0
    7.9897   -7.2809    0.0000 C   0  0
    5.6879   -5.7713    0.0000 C   0  0
    6.7972   -6.5428    0.0000 C   0  0
    8.7028   -6.0341    0.0000 C   0  0
    6.1257   -6.0632    0.0000 C   0  0
    6.4385   -5.4961    0.0000 C   0  0
    8.7112   -6.8680    0.0000 C   0  0
    6.5010   -7.7855    0.0000 N   0  0
    4.9122   -7.8105    0.0000 C   0  0
    9.4159   -5.6212    0.0000 O   0  0
    6.4385   -4.6705    0.0000 C   0  0
    4.1366   -7.5478    0.0000 C   0  0
    5.0373   -6.6971    0.0000 H   0  0
  2  1  1  0
  3  2  2  0
  4  1  1  0
  5  4  1  0
  6  3  1  0
  7  2  1  0
  8 12  2  0
  9  5  1  0
 10 13  1  0
 11  1  1  0
 12 11  1  0
 13  7  2  0
  1 14  1  6
 15  4  2  0
 16 10  2  0
 17 12  1  0
 18 15  1  0
  5 19  1  6
  5  8  1  0
  3  9  1  0
 10  6  1  0
M  END
>  <MOLREGNO>
704882

>  <CHEMBLID>
CHEMBL1255901

>  <SYNONYMS>
HUPERAZINE A | HYPERAZZINE A | Huperzine A | HUPERAINE A

>  <MAX_PHASE>
0

>  <MOLWEIGHT>
242.32

>  <ALOGP>
1.06

>  <PSA>
55.12

>  <HBA>
2

>  <HBD>
2

>  <RO5>
0

>  <RTB>
0

>  <RO3>
Y

>  <ACD_MOST_APKA>
12.25

>  <ACD_MOST_BPKA>
9.01

>  <ACD_LOGP>
.83

>  <ACD_LOGD>
-.58

>  <AROMATIC_RINGS>
0

>  <HEAVY_ATOMS>
18

>  <QED_WEIGHTED>
.62

>  <HBA_LIPINSKI>
3

>  <HBD_LIPINSKI>
3

>  <NUM_LIPINSKI_RO5_VIOLATIONS>
0

>  <MW_MONOISOTOPIC>
242.1419

>  <MOLECULAR_SPECIES>
BASE

>  <FULL_MOLFORMULA>
C15H18N2O

$$$$

  CDK    9/16/09,9:47

 21 23  0  0  0  0  0  0  0  0999 V2000
   -4.9778  -15.9457    0.0000 C   0  0  0  0  0  0  0  0  0  0  0  0
   -4.9790  -16.7693    0.0000 C   0  0  0  0  0  0  0  0  0  0  0  0
   -4.2696  -17.1803    0.0000 C   0  0  0  0  0  0  0  0  0  0  0  0
   -4.2715  -15.5350    0.0000 C   0  0  0  0  0  0  0  0  0  0  0  0
   -3.5568  -15.9418    0.0000 C   0  0  0  0  0  0  0  0  0  0  0  0
   -3.5531  -16.7713    0.0000 C   0  0  0  0  0  0  0  0  0  0  0  0
   -2.8369  -17.1807    0.0000 C   0  0  0  0  0  0  0  0  0  0  0  0
   -2.8442  -15.5215    0.0000 C   0  0  0  0  0  0  0  0  0  0  0  0
   -2.1232  -15.9354    0.0000 C   0  0  0  0  0  0  0  0  0  0  0  0
   -2.1235  -16.7647    0.0000 C   0  0  0  0  0  0  0  0  0  0  0  0
   -1.4063  -17.1779    0.0000 C   0  0  0  0  0  0  0  0  0  0  0  0
   -0.6887  -16.7626    0.0000 C   0  0  0  0  0  0  0  0  0  0  0  0
   -0.6925  -15.9301    0.0000 C   0  0  0  0  0  0  0  0  0  0  0  0
   -1.4102  -15.5208    0.0000 C   0  0  0  0  0  0  0  0  0  0  0  0
   -2.8332  -18.0017    0.0000 O   0  0  0  0  0  0  0  0  0  0  0  0
   -2.8490  -14.7005    0.0000 O   0  0  0  0  0  0  0  0  0  0  0  0
   -1.4136  -14.6998    0.0000 O   0  0  0  0  0  0  0  0  0  0  0  0
   -4.2754  -14.7140    0.0000 O   0  0  0  0  0  0  0  0  0  0  0  0
   -0.7043  -14.2863    0.0000 C   0  0  0  0  0  0  0  0  0  0  0  0
    0.0164  -15.5159    0.0000 O   0  0  0  0  0  0  0  0  0  0  0  0
    0.0235  -17.1711    0.0000 C   0  0  0  0  0  0  0  0  0  0  0  0
  9 10  2  0  0  0  0 
  5  6  1  0  0  0  0 
 10 11  1  0  0  0  0 
 11 12  2  0  0  0  0 
  2  3  1  0  0  0  0 
 12 13  1  0  0  0  0 
  3  6  2  0  0  0  0 
 13 14  2  0  0  0  0 
 14  9  1  0  0  0  0 
  1  2  2  0  0  0  0 
  7 15  2  0  0  0  0 
  5  8  1  0  0  0  0 
  8 16  2  0  0  0  0 
  6  7  1  0  0  0  0 
 14 17  1  0  0  0  0 
  7 10  1  0  0  0  0 
  4 18  1  0  0  0  0 
  9  8  1  0  0  0  0 
 17 19  1  0  0  0  0 
  5  4  2  0  0  0  0 
 13 20  1  0  0  0  0 
  4  1  1  0  0  0  0 
 12 21  1  0  0  0  0 
M  END
>  <MOLREGNO>
448358

>  <CHEMBLID>
CHEMBL448400

>  <SYNONYMS>
Obtusifolin

>  <MAX_PHASE>
0

>  <MOLWEIGHT>
284.26

>  <ALOGP>
2.79

>  <PSA>
83.83

>  <HBA>
5

>  <HBD>
2

>  <RO5>
0

>  <RTB>
1

>  <RO3>
N

>  <ACD_MOST_APKA>
6.6

>  <ACD_MOST_BPKA>


>  <ACD_LOGP>
2.14

>  <ACD_LOGD>
1.01

>  <AROMATIC_RINGS>
2

>  <HEAVY_ATOMS>
21

>  <QED_WEIGHTED>
.84

>  <HBA_LIPINSKI>
5

>  <HBD_LIPINSKI>
2

>  <NUM_LIPINSKI_RO5_VIOLATIONS>
0

>  <MW_MONOISOTOPIC>
284.0685

>  <MOLECULAR_SPECIES>
NEUTRAL

>  <FULL_MOLFORMULA>
C16H12O5

$$$$

  Mrv0541 04051115152D          

 21 23  0  0  0  0            999 V2000
    0.5645   -4.8451    0.0000 O   0  0  0  0  0  0  0  0  0  0  0  0
    0.5645   -4.0201    0.0000 C   0  0  0  0  0  0  0  0  0  0  0  0
   -0.1500   -3.6076    0.0000 C   0  0  0  0  0  0  0  0  0  0  0  0
   -0.1500   -2.7826    0.0000 C   0  0  1  0  0  0  0  0  0  0  0  0
   -0.8644   -2.3701    0.0000 C   0  0  0  0  0  0  0  0  0  0  0  0
   -1.5789   -2.7826    0.0000 C   0  0  0  0  0  0  0  0  0  0  0  0
   -2.2934   -2.3701    0.0000 C   0  0  0  0  0  0  0  0  0  0  0  0
   -2.2934   -1.5451    0.0000 C   0  0  0  0  0  0  0  0  0  0  0  0
   -3.0078   -1.1326    0.0000 O   0  0  0  0  0  0  0  0  0  0  0  0
   -1.5789   -1.1326    0.0000 C   0  0  0  0  0  0  0  0  0  0  0  0
   -1.5789   -0.3076    0.0000 O   0  0  0  0  0  0  0  0  0  0  0  0
   -0.8644   -1.5451    0.0000 C   0  0  0  0  0  0  0  0  0  0  0  0
    0.5645   -2.3701    0.0000 O   0  0  0  0  0  0  0  0  0  0  0  0
    1.2790   -2.7826    0.0000 C   0  0  0  0  0  0  0  0  0  0  0  0
    1.2790   -3.6076    0.0000 C   0  0  0  0  0  0  0  0  0  0  0  0
    1.9935   -2.3701    0.0000 C   0  0  0  0  0  0  0  0  0  0  0  0
    2.7079   -2.7826    0.0000 C   0  0  0  0  0  0  0  0  0  0  0  0
    3.4224   -2.3701    0.0000 O   0  0  0  0  0  0  0  0  0  0  0  0
    2.7079   -3.6076    0.0000 C   0  0  0  0  0  0  0  0  0  0  0  0
    1.9935   -4.0201    0.0000 C   0  0  0  0  0  0  0  0  0  0  0  0
    1.9935   -4.8451    0.0000 O   0  0  0  0  0  0  0  0  0  0  0  0
  2  1  2  0  0  0  0
 15  2  1  0  0  0  0
  3  2  1  0  0  0  0
  3  4  1  0  0  0  0
  4 13  1  0  0  0  0
  4  5  1  1  0  0  0
  5  6  2  0  0  0  0
  5 12  1  0  0  0  0
  6  7  1  0  0  0  0
  7  8  2  0  0  0  0
  8 10  1  0  0  0  0
  8  9  1  0  0  0  0
 10 12  2  0  0  0  0
 10 11  1  0  0  0  0
 14 13  1  0  0  0  0
 15 14  2  0  0  0  0
 14 16  1  0  0  0  0
 20 15  1  0  0  0  0
 16 17  2  0  0  0  0
 19 17  1  0  0  0  0
 17 18  1  0  0  0  0
 19 20  2  0  0  0  0
 20 21  1  0  0  0  0
M  END
>  <MOLREGNO>
5235

>  <CHEMBLID>
CHEMBL8996

>  <SYNONYMS>
ERIODICTYOL

>  <MAX_PHASE>
0

>  <MOLWEIGHT>
288.25

>  <ALOGP>
2.13

>  <PSA>
107.22

>  <HBA>
6

>  <HBD>
4

>  <RO5>
0

>  <RTB>
1

>  <RO3>
N

>  <ACD_MOST_APKA>
7.5

>  <ACD_MOST_BPKA>


>  <ACD_LOGP>
1.34

>  <ACD_LOGD>
.92

>  <AROMATIC_RINGS>
2

>  <HEAVY_ATOMS>
21

>  <QED_WEIGHTED>
.6

>  <HBA_LIPINSKI>
6

>  <HBD_LIPINSKI>
4

>  <NUM_LIPINSKI_RO5_VIOLATIONS>
0

>  <MW_MONOISOTOPIC>
288.0634

>  <MOLECULAR_SPECIES>
NEUTRAL

>  <FULL_MOLFORMULA>
C15H12O6

$$$$

  SciTegic12171313022D

 48 51  0  0  0  0            999 V2000
    8.5808   -4.4818    0.0000 O   0  0
    9.3041   -4.0988    0.0000 C   0  0  1  0  0  0
    9.3333   -3.2821    0.0000 C   0  0  2  0  0  0
    8.6393   -2.8484    0.0000 O   0  0
   10.0565   -2.8992    0.0000 C   0  0  1  0  0  0
   10.0858   -2.0825    0.0000 O   0  0
   10.7506   -3.3328    0.0000 C   0  0  2  0  0  0
   11.4697   -2.9497    0.0000 O   0  0
   10.7214   -4.1495    0.0000 C   0  0  2  0  0  0
    9.9981   -4.5325    0.0000 O   0  0
   11.4113   -4.5831    0.0000 C   0  0
   11.3820   -5.3997    0.0000 O   0  0
    8.5906   -7.7505    0.0000 O   0  0
    9.2827   -8.1873    0.0000 C   0  0  1  0  0  0
   10.0056   -7.8063    0.0000 C   0  0  2  0  0  0
   10.0365   -6.9885    0.0000 O   0  0
   10.6977   -8.2432    0.0000 C   0  0  1  0  0  0
   11.4206   -7.8622    0.0000 O   0  0
   10.6668   -9.0610    0.0000 C   0  0  2  0  0  0
   11.3569   -9.4941    0.0000 O   0  0
    9.9439   -9.4420    0.0000 C   0  0  2  0  0  0
    9.2518   -9.0051    0.0000 O   0  0
    9.9111  -10.2561    0.0000 C   0  0
    9.1881  -10.6371    0.0000 O   0  0
    6.4701   -8.1636    0.0000 C   0  0
    6.4689   -8.9832    0.0000 C   0  0
    7.1770   -9.3921    0.0000 C   0  0
    7.8866   -8.9827    0.0000 C   0  0
    7.8838   -8.1600    0.0000 C   0  0
    7.1752   -7.7548    0.0000 C   0  0
    7.1768  -10.2093    0.0000 O   0  0
    5.7609   -9.3912    0.0000 O   0  0
    5.0535   -8.9820    0.0000 C   0  0
    7.1727   -6.9376    0.0000 C   0  0
    7.8792   -6.5269    0.0000 C   0  0  2  0  0  0
    7.8768   -5.7097    0.0000 C   0  0  2  0  0  0
    8.5833   -5.2990    0.0000 C   0  0
    7.1679   -5.3032    0.0000 C   0  0
    6.4614   -5.7139    0.0000 C   0  0
    5.7556   -5.3034    0.0000 C   0  0
    5.0496   -5.7135    0.0000 C   0  0
    5.0516   -6.5315    0.0000 C   0  0
    5.7655   -6.9378    0.0000 C   0  0
    6.4686   -6.5255    0.0000 C   0  0
    4.3457   -6.9432    0.0000 O   0  0
    4.3409   -5.3066    0.0000 O   0  0
    4.3388   -4.4894    0.0000 C   0  0
    8.5882   -6.9333    0.0000 C   0  0
  2  1  1  1
  2  3  1  0
  3  4  1  6
  3  5  1  0
  5  6  1  1
  5  7  1  0
  7  8  1  6
  7  9  1  0
  9 10  1  0
  9 11  1  1
 11 12  1  0
  2 10  1  0
 14 13  1  1
 14 15  1  0
 15 16  1  6
 15 17  1  0
 17 18  1  1
 17 19  1  0
 19 20  1  6
 19 21  1  0
 21 22  1  0
 21 23  1  1
 23 24  1  0
 14 22  1  0
 25 26  2  0
 26 27  1  0
 27 28  2  0
 28 29  1  0
 29 30  2  0
 30 25  1  0
 27 31  1  0
 26 32  1  0
 32 33  1  0
 30 34  1  0
 34 35  1  0
 35 36  1  0
 36 37  1  1
 36 38  1  0
 38 39  1  0
 39 40  2  0
 40 41  1  0
 41 42  2  0
 42 43  1  0
 43 44  2  0
 44 39  1  0
 42 45  1  0
 41 46  1  0
 46 47  1  0
 37  1  1  0
 35 48  1  6
 48 13  1  0
M  END
>  <MOLREGNO>
1580601

>  <CHEMBLID>
CHEMBL2425486

>  <SYNONYMS>


>  <MAX_PHASE>
0

>  <MOLWEIGHT>
686.7

>  <ALOGP>
-.65

>  <PSA>
257.67

>  <HBA>
16

>  <HBD>
10

>  <RO5>
3

>  <RTB>
15

>  <RO3>
N

>  <ACD_MOST_APKA>
10.32

>  <ACD_MOST_BPKA>
9.69

>  <ACD_LOGP>
5.12

>  <ACD_LOGD>
2.86

>  <AROMATIC_RINGS>
2

>  <HEAVY_ATOMS>
48

>  <QED_WEIGHTED>
.11

>  <HBA_LIPINSKI>
16

>  <HBD_LIPINSKI>
10

>  <NUM_LIPINSKI_RO5_VIOLATIONS>
2

>  <MW_MONOISOTOPIC>
686.2786

>  <MOLECULAR_SPECIES>
BASE

>  <FULL_MOLFORMULA>
C32H46O16

$$$$

  SciTegic01161211232D

 44 48  0  0  0  0            999 V2000
   10.7335   -0.5923    0.0000 O   0  0
   10.0243   -0.1685    0.0000 C   0  0  2  0  0  0
   10.0407    0.6563    0.0000 C   0  0  2  0  0  0
   10.7644    1.0545    0.0000 O   0  0
    9.3331    1.0828    0.0000 C   0  0  2  0  0  0
    9.3494    1.9076    0.0000 O   0  0
    8.6093    0.6846    0.0000 C   0  0  2  0  0  0
    7.9060    1.1111    0.0000 O   0  0
    8.5930   -0.1402    0.0000 C   0  0  2  0  0  0
    9.3005   -0.5667    0.0000 O   0  0
    7.8734   -0.5385    0.0000 C   0  0
   12.8584   -1.8523    0.0000 C   0  0  2  0  0  0
   13.5777   -1.4485    0.0000 C   0  0  2  0  0  0
   14.2878   -1.8708    0.0000 O   0  0
   13.5870   -0.6225    0.0000 C   0  0  2  0  0  0
   14.3064   -0.2186    0.0000 O   0  0
   12.8769   -0.2001    0.0000 C   0  0  2  0  0  0
   12.8883    0.6223    0.0000 O   0  0
   12.1575   -0.6040    0.0000 C   0  0  2  0  0  0
   12.1483   -1.4300    0.0000 O   0  0
   11.4496   -0.1853    0.0000 C   0  0
   12.8481   -2.6772    0.0000 O   0  0
   13.5607   -3.0957    0.0000 C   0  0
   13.5533   -3.9230    0.0000 C   0  0
   14.2649   -4.3412    0.0000 C   0  0
   14.2756   -2.6883    0.0000 C   0  0
   14.9878   -3.1028    0.0000 C   0  0
   14.9804   -3.9313    0.0000 C   0  0
   15.6902   -4.3495    0.0000 C   0  0
   16.4118   -3.9441    0.0000 C   0  0
   16.4193   -3.1156    0.0000 C   0  0
   15.7050   -2.6927    0.0000 O   0  0
   15.6817   -5.1744    0.0000 O   0  0
   17.1378   -2.7103    0.0000 C   0  0
   17.8464   -3.1345    0.0000 C   0  0
   18.5645   -2.7298    0.0000 C   0  0
   18.5731   -1.9041    0.0000 C   0  0
   17.8578   -1.4846    0.0000 C   0  0
   17.1428   -1.8917    0.0000 C   0  0
   19.2910   -1.4978    0.0000 O   0  0
   20.0018   -1.9164    0.0000 C   0  0
   14.2604   -5.1662    0.0000 O   0  0
   12.8355   -4.3295    0.0000 O   0  0
   12.8286   -5.1544    0.0000 C   0  0
  9 11  1  1
 12 22  1  6
  2 10  1  0
 23 24  2  0
  2  1  1  6
 24 25  1  0
 25 28  2  0
  2  3  1  0
 27 26  2  0
 26 23  1  0
 27 28  1  0
  3  4  1  1
  3  5  1  0
  5  6  1  1
  5  7  1  0
  7  8  1  6
  7  9  1  0
 27 32  1  0
 28 29  1  0
 29 30  1  0
 30 31  2  0
 31 32  1  0
  9 10  1  0
 29 33  2  0
 12 13  1  0
 31 34  1  0
 13 14  1  1
 34 35  2  0
 13 15  1  0
 35 36  1  0
 15 16  1  6
 36 37  2  0
 15 17  1  0
 37 38  1  0
 17 18  1  1
 38 39  2  0
 39 34  1  0
 17 19  1  0
 37 40  1  0
 19 20  1  0
 40 41  1  0
 19 21  1  6
 25 42  1  0
 12 20  1  0
 24 43  1  0
 21  1  1  0
 43 44  1  0
 23 22  1  0
M  END
>  <MOLREGNO>
513733

>  <CHEMBLID>
CHEMBL445978

>  <SYNONYMS>
Pectolinarin

>  <MAX_PHASE>
0

>  <MOLWEIGHT>
622.57

>  <ALOGP>
-.17

>  <PSA>
223.28

>  <HBA>
15

>  <HBD>
7

>  <RO5>
3

>  <RTB>
8

>  <RO3>
N

>  <ACD_MOST_APKA>
6.09

>  <ACD_MOST_BPKA>


>  <ACD_LOGP>
-.39

>  <ACD_LOGD>
-1.73

>  <AROMATIC_RINGS>
2

>  <HEAVY_ATOMS>
44

>  <QED_WEIGHTED>
.2

>  <HBA_LIPINSKI>
15

>  <HBD_LIPINSKI>
7

>  <NUM_LIPINSKI_RO5_VIOLATIONS>
2

>  <MW_MONOISOTOPIC>
622.1898

>  <MOLECULAR_SPECIES>
ACID

>  <FULL_MOLFORMULA>
C29H34O15

$$$$

  CDK    9/16/09,9:47

 24 26  0  0  0  0  0  0  0  0999 V2000
   11.7337   -4.9349    0.0000 C   0  0  0  0  0  0  0  0  0  0  0  0
   11.7324   -5.7585    0.0000 C   0  0  0  0  0  0  0  0  0  0  0  0
   12.4419   -6.1693    0.0000 C   0  0  0  0  0  0  0  0  0  0  0  0
   12.4399   -4.5241    0.0000 C   0  0  0  0  0  0  0  0  0  0  0  0
   13.1546   -4.9309    0.0000 C   0  0  0  0  0  0  0  0  0  0  0  0
   13.1582   -5.7604    0.0000 C   0  0  0  0  0  0  0  0  0  0  0  0
   13.8746   -6.1697    0.0000 C   0  0  0  0  0  0  0  0  0  0  0  0
   13.8672   -4.5106    0.0000 C   0  0  0  0  0  0  0  0  0  0  0  0
   14.5880   -4.9245    0.0000 C   0  0  0  0  0  0  0  0  0  0  0  0
   14.5879   -5.7539    0.0000 C   0  0  0  0  0  0  0  0  0  0  0  0
   15.3050   -6.1669    0.0000 C   0  0  0  0  0  0  0  0  0  0  0  0
   16.0226   -5.7517    0.0000 C   0  0  0  0  0  0  0  0  0  0  0  0
   16.0188   -4.9191    0.0000 C   0  0  0  0  0  0  0  0  0  0  0  0
   15.3012   -4.5100    0.0000 C   0  0  0  0  0  0  0  0  0  0  0  0
   13.8782   -6.9907    0.0000 O   0  0  0  0  0  0  0  0  0  0  0  0
   13.8624   -3.6898    0.0000 O   0  0  0  0  0  0  0  0  0  0  0  0
   15.2977   -3.6890    0.0000 O   0  0  0  0  0  0  0  0  0  0  0  0
   11.0224   -4.5249    0.0000 O   0  0  0  0  0  0  0  0  0  0  0  0
   12.4361   -3.7031    0.0000 O   0  0  0  0  0  0  0  0  0  0  0  0
   11.7232   -3.2960    0.0000 C   0  0  0  0  0  0  0  0  0  0  0  0
   11.0209   -6.1679    0.0000 C   0  0  0  0  0  0  0  0  0  0  0  0
   16.7277   -4.5051    0.0000 O   0  0  0  0  0  0  0  0  0  0  0  0
   16.7348   -6.1602    0.0000 O   0  0  0  0  0  0  0  0  0  0  0  0
   17.4407   -4.9121    0.0000 C   0  0  0  0  0  0  0  0  0  0  0  0
 11 12  2  0  0  0  0 
  2  3  1  0  0  0  0 
 12 13  1  0  0  0  0 
  3  6  2  0  0  0  0 
 13 14  2  0  0  0  0 
 14  9  1  0  0  0  0 
  1  2  2  0  0  0  0 
  7 15  2  0  0  0  0 
  5  8  1  0  0  0  0 
  8 16  2  0  0  0  0 
  6  7  1  0  0  0  0 
 14 17  1  0  0  0  0 
  7 10  1  0  0  0  0 
  1 18  1  0  0  0  0 
  9  8  1  0  0  0  0 
  4 19  1  0  0  0  0 
  5  4  2  0  0  0  0 
 19 20  1  0  0  0  0 
  4  1  1  0  0  0  0 
  2 21  1  0  0  0  0 
  9 10  2  0  0  0  0 
 13 22  1  0  0  0  0 
  5  6  1  0  0  0  0 
 12 23  1  0  0  0  0 
 10 11  1  0  0  0  0 
 22 24  1  0  0  0  0 
M  END
>  <MOLREGNO>
448506

>  <CHEMBLID>
CHEMBL461288

>  <SYNONYMS>
Aurantioobtusin

>  <MAX_PHASE>
0

>  <MOLWEIGHT>
330.29

>  <ALOGP>
2.54

>  <PSA>
113.29

>  <HBA>
7

>  <HBD>
3

>  <RO5>
0

>  <RTB>
2

>  <RO3>
N

>  <ACD_MOST_APKA>
6.32

>  <ACD_MOST_BPKA>


>  <ACD_LOGP>
.74

>  <ACD_LOGD>
-1.14

>  <AROMATIC_RINGS>
2

>  <HEAVY_ATOMS>
24

>  <QED_WEIGHTED>
.78

>  <HBA_LIPINSKI>
7

>  <HBD_LIPINSKI>
3

>  <NUM_LIPINSKI_RO5_VIOLATIONS>
0

>  <MW_MONOISOTOPIC>
330.074

>  <MOLECULAR_SPECIES>
ACID

>  <FULL_MOLFORMULA>
C17H14O7

$$$$

  Mrv0541 04051115152D          

 21 23  0  0  0  0            999 V2000
   -0.3015    1.1362    0.0000 C   0  0  0  0  0  0  0  0  0  0  0  0
    0.4129   -0.1013    0.0000 C   0  0  0  0  0  0  0  0  0  0  0  0
    3.2708    1.5487    0.0000 O   0  0  0  0  0  0  0  0  0  0  0  0
    1.1274    0.3112    0.0000 C   0  0  0  0  0  0  0  0  0  0  0  0
    1.1274    1.1362    0.0000 C   0  0  0  0  0  0  0  0  0  0  0  0
    2.5564    1.1362    0.0000 C   0  0  0  0  0  0  0  0  0  0  0  0
    2.5564    0.3112    0.0000 C   0  0  0  0  0  0  0  0  0  0  0  0
    1.8419   -0.1013    0.0000 C   0  0  0  0  0  0  0  0  0  0  0  0
    1.8419    1.5487    0.0000 C   0  0  0  0  0  0  0  0  0  0  0  0
   -0.3015    0.3112    0.0000 C   0  0  0  0  0  0  0  0  0  0  0  0
    0.4129    1.5487    0.0000 O   0  0  0  0  0  0  0  0  0  0  0  0
   -1.0160   -0.1013    0.0000 C   0  0  0  0  0  0  0  0  0  0  0  0
    0.4129   -0.9263    0.0000 O   0  0  0  0  0  0  0  0  0  0  0  0
   -1.7305    0.3112    0.0000 C   0  0  0  0  0  0  0  0  0  0  0  0
   -2.4449   -0.1013    0.0000 C   0  0  0  0  0  0  0  0  0  0  0  0
   -2.4449   -0.9263    0.0000 C   0  0  0  0  0  0  0  0  0  0  0  0
   -1.7305   -1.3388    0.0000 C   0  0  0  0  0  0  0  0  0  0  0  0
   -1.0160   -0.9263    0.0000 C   0  0  0  0  0  0  0  0  0  0  0  0
   -3.1594   -1.3388    0.0000 O   0  0  0  0  0  0  0  0  0  0  0  0
    1.8419   -0.9263    0.0000 O   0  0  0  0  0  0  0  0  0  0  0  0
   -3.1594   -2.1638    0.0000 C   0  0  0  0  0  0  0  0  0  0  0  0
  1 11  1  0  0  0  0
  5 11  1  0  0  0  0
  9  5  2  0  0  0  0
  6  9  1  0  0  0  0
  1 10  2  0  0  0  0
  6  3  1  0  0  0  0
  4  5  1  0  0  0  0
  7  6  2  0  0  0  0
 17 18  2  0  0  0  0
 12 18  1  0  0  0  0
 12 10  1  0  0  0  0
 10  2  1  0  0  0  0
 16 17  1  0  0  0  0
 12 14  2  0  0  0  0
  2  4  1  0  0  0  0
  4  8  2  0  0  0  0
 21 19  1  0  0  0  0
  8  7  1  0  0  0  0
  2 13  2  0  0  0  0
 16 19  1  0  0  0  0
 15 16  2  0  0  0  0
 14 15  1  0  0  0  0
  8 20  1  0  0  0  0
M  END
>  <MOLREGNO>
220354

>  <CHEMBLID>
CHEMBL131921

>  <SYNONYMS>
NSC-123538

>  <MAX_PHASE>
0

>  <MOLWEIGHT>
284.26

>  <ALOGP>
2.37

>  <PSA>
75.99

>  <HBA>
5

>  <HBD>
2

>  <RO5>
0

>  <RTB>
2

>  <RO3>
N

>  <ACD_MOST_APKA>
6.5

>  <ACD_MOST_BPKA>


>  <ACD_LOGP>
3.34

>  <ACD_LOGD>
2.11

>  <AROMATIC_RINGS>
2

>  <HEAVY_ATOMS>
21

>  <QED_WEIGHTED>
.89

>  <HBA_LIPINSKI>
5

>  <HBD_LIPINSKI>
2

>  <NUM_LIPINSKI_RO5_VIOLATIONS>
0

>  <MW_MONOISOTOPIC>
284.0685

>  <MOLECULAR_SPECIES>
ACID

>  <FULL_MOLFORMULA>
C16H12O5

$$$$

  SciTegic12231509382D

 13 14  0  0  0  0            999 V2000
    0.2478   -3.3523    0.0000 C   0  0
    0.2478   -2.5506    0.0000 C   0  0
   -0.4469   -3.7507    0.0000 N   0  0
   -1.1660   -3.3523    0.0000 C   0  0
   -1.1660   -2.5506    0.0000 N   0  0
    1.6616   -3.3523    0.0000 N   0  0
   -0.4469   -2.1474    0.0000 C   0  0
    0.9523   -2.1474    0.0000 N   0  0
    1.6616   -2.5506    0.0000 C   0  0
   -1.7733   -3.7507    0.0000 O   0  0
   -0.4615   -1.4867    0.0000 O   0  0
   -0.4615   -4.5183    0.0000 C   0  0
    0.9523   -1.4333    0.0000 C   0  0
  2  1  2  0
  3  1  1  0
  4  3  1  0
  5  4  1  0
  6  1  1  0
  7  2  1  0
  8  2  1  0
  9  6  2  0
 10  4  2  0
 11  7  2  0
 12  3  1  0
 13  8  1  0
  9  8  1  0
  5  7  1  0
M  END
>  <MOLREGNO>
155584

>  <CHEMBLID>
CHEMBL1114

>  <SYNONYMS>
THEOCALCIN | THEOSALICIN | THEOBROMINE SODIUM ACETATE | THEOBROMINE CALCIUM SALICYLATE | Theobromine(20%) | THEOCIN | THEOBROMINE SODIUM SALICYLATE | THEOPHYLLINE SODIUM ACETATE | Theobromine

>  <MAX_PHASE>
3

>  <MOLWEIGHT>
180.16

>  <ALOGP>
-.31

>  <PSA>
67.23

>  <HBA>
3

>  <HBD>
1

>  <RO5>
0

>  <RTB>
0

>  <RO3>
N

>  <ACD_MOST_APKA>
9.9

>  <ACD_MOST_BPKA>
.41

>  <ACD_LOGP>
-1.06

>  <ACD_LOGD>
-1.06

>  <AROMATIC_RINGS>
1

>  <HEAVY_ATOMS>
13

>  <QED_WEIGHTED>
.6

>  <HBA_LIPINSKI>
6

>  <HBD_LIPINSKI>
1

>  <NUM_LIPINSKI_RO5_VIOLATIONS>
0

>  <MW_MONOISOTOPIC>
180.0647

>  <MOLECULAR_SPECIES>
NEUTRAL

>  <FULL_MOLFORMULA>
C7H8N4O2

$$$$

  SciTegic01161211232D

 13 13  0  0  0  0            999 V2000
   -4.4379    1.2168    0.0000 C   0  0  2  0  0  0
   -4.4379    0.3917    0.0000 C   0  0  2  0  0  0
   -3.7258   -0.0167    0.0000 C   0  0  2  0  0  0
   -3.0138    0.3917    0.0000 C   0  0  2  0  0  0
   -3.0138    1.2168    0.0000 C   0  0  2  0  0  0
   -3.7258    1.6335    0.0000 C   0  0  1  0  0  0
   -2.2980    1.6272    0.0000 O   0  0
   -2.2998   -0.0219    0.0000 O   0  0
   -5.1537    1.6272    0.0000 O   0  0
   -3.7258    2.4585    0.0000 O   0  0
   -3.0113    2.8711    0.0000 C   0  0
   -3.7258   -0.8418    0.0000 O   0  0
   -5.1519   -0.0219    0.0000 O   0  0
  5  7  1  1
  1  2  1  0
  4  8  1  1
  1  6  1  0
  1  9  1  1
  2  3  1  0
  6 10  1  6
  3  4  1  0
 10 11  1  0
  4  5  1  0
  3 12  1  6
  5  6  1  0
  2 13  1  6
M  END
>  <MOLREGNO>
477648

>  <CHEMBLID>
CHEMBL493737

>  <SYNONYMS>
Pinitol | D-Pinitol | Cathrtomannitol

>  <MAX_PHASE>
0

>  <MOLWEIGHT>
194.18

>  <ALOGP>
-2.66

>  <PSA>
110.38

>  <HBA>
6

>  <HBD>
5

>  <RO5>
0

>  <RTB>
1

>  <RO3>
N

>  <ACD_MOST_APKA>
12.98

>  <ACD_MOST_BPKA>


>  <ACD_LOGP>
-2.12

>  <ACD_LOGD>
-2.12

>  <AROMATIC_RINGS>
0

>  <HEAVY_ATOMS>
13

>  <QED_WEIGHTED>
.31

>  <HBA_LIPINSKI>
6

>  <HBD_LIPINSKI>
5

>  <NUM_LIPINSKI_RO5_VIOLATIONS>
0

>  <MW_MONOISOTOPIC>
194.079

>  <MOLECULAR_SPECIES>
NEUTRAL

>  <FULL_MOLFORMULA>
C7H14O6

$$$$

  CDK    9/16/09,9:19

 37 41  0  0  0  0  0  0  0  0999 V2000
    8.5085   -4.2022    0.0000 C   0  0  0  0  0  0  0  0  0  0  0  0
    8.5085   -5.0302    0.0000 C   0  0  0  0  0  0  0  0  0  0  0  0
    9.2196   -5.4421    0.0000 C   0  0  0  0  0  0  0  0  0  0  0  0
    9.2196   -3.7862    0.0000 C   0  0  0  0  0  0  0  0  0  0  0  0
    9.9347   -4.2022    0.0000 C   0  0  0  0  0  0  0  0  0  0  0  0
    9.9312   -5.0302    0.0000 C   0  0  0  0  0  0  0  0  0  0  0  0
   10.6431   -5.4470    0.0000 C   0  0  0  0  0  0  0  0  0  0  0  0
   11.3630   -5.0362    0.0000 C   0  0  0  0  0  0  0  0  0  0  0  0
   10.6501   -3.7911    0.0000 C   0  0  0  0  0  0  0  0  0  0  0  0
   11.3627   -4.2108    0.0000 C   0  0  0  0  0  0  0  0  0  0  0  0
   11.3796   -2.5587    0.0000 C   0  0  0  0  0  0  0  0  0  0  0  0
   10.6554   -2.9658    0.0000 C   0  0  0  0  0  0  0  0  0  0  0  0
   12.0920   -2.9825    0.0000 C   0  0  0  0  0  0  0  0  0  0  0  0
   12.0783   -3.8067    0.0000 C   0  0  0  0  0  0  0  0  0  0  0  0
   12.7817   -4.2264    0.0000 C   0  0  0  0  0  0  0  0  0  0  0  0
   13.5036   -3.8307    0.0000 C   0  0  0  0  0  0  0  0  0  0  0  0
   12.8094   -2.5780    0.0000 C   0  0  0  0  0  0  0  0  0  0  0  0
   13.5131   -3.0085    0.0000 C   0  0  0  0  0  0  0  0  0  0  0  0
   14.2281   -2.6137    0.0000 C   0  0  0  0  0  0  0  0  0  0  0  0
   14.2538   -1.7913    0.0000 C   0  0  0  0  0  0  0  0  0  0  0  0
   13.5502   -1.3650    0.0000 C   0  0  0  0  0  0  0  0  0  0  0  0
   12.8249   -1.7571    0.0000 C   0  0  0  0  0  0  0  0  0  0  0  0
   12.9563   -0.7739    0.0000 C   0  0  0  0  0  0  0  0  0  0  0  0
   14.1296   -0.7739    0.0000 C   0  0  0  0  0  0  0  0  0  0  0  0
   14.2212   -3.4201    0.0000 C   0  0  0  0  0  0  0  0  0  0  0  0
   14.2187   -4.2481    0.0000 O   0  0  0  0  0  0  0  0  0  0  0  0
   14.9400   -3.0104    0.0000 O   0  0  0  0  0  0  0  0  0  0  0  0
   11.3544   -3.3826    0.0000 C   0  0  0  0  0  0  0  0  0  0  0  0
   12.8023   -3.4034    0.0000 H   0  0  0  0  0  0  0  0  0  0  0  0
   12.0701   -4.6308    0.0000 C   0  0  0  0  0  0  0  0  0  0  0  0
   10.6429   -4.6183    0.0000 H   0  0  0  0  0  0  0  0  0  0  0  0
    9.9274   -3.3743    0.0000 C   0  0  0  0  0  0  0  0  0  0  0  0
    9.9232   -5.8540    0.0000 H   0  0  0  0  0  0  0  0  0  0  0  0
    8.5002   -5.8499    0.0000 C   0  0  0  0  0  0  0  0  0  0  0  0
    9.4322   -6.2410    0.0000 C   0  0  0  0  0  0  0  0  0  0  0  0
    8.8425   -6.8246    0.0000 O   0  0  0  0  0  0  0  0  0  0  0  0
    7.7916   -5.4473    0.0000 O   0  0  0  0  0  0  0  0  0  0  0  0
 17 18  1  0  0  0  0 
  6  7  1  0  0  0  0 
  7  8  1  0  0  0  0 
  8 10  1  0  0  0  0 
  9 10  1  0  0  0  0 
  3  6  1  0  0  0  0 
  5  4  1  0  0  0  0 
 17 22  1  0  0  0  0 
 18 19  1  0  0  0  0 
 19 20  1  0  0  0  0 
 20 21  1  0  0  0  0 
 21 22  1  0  0  0  0 
  5  6  1  0  0  0  0 
 21 23  1  0  0  0  0 
 21 24  1  0  0  0  0 
  9 12  1  0  0  0  0 
 18 25  1  1  0  0  0 
 10 14  1  0  0  0  0 
 25 26  2  0  0  0  0 
 13 11  2  0  0  0  0 
 25 27  1  0  0  0  0 
 11 12  1  0  0  0  0 
 10 28  1  1  0  0  0 
 13 14  1  0  0  0  0 
 17 29  1  1  0  0  0 
  1  2  1  0  0  0  0 
 14 30  1  6  0  0  0 
  1  4  1  0  0  0  0 
  9 31  1  6  0  0  0 
  2  3  1  0  0  0  0 
  5 32  1  1  0  0  0 
  5  9  1  0  0  0  0 
  6 33  1  6  0  0  0 
 13 17  1  0  0  0  0 
  3 34  1  0  0  0  0 
 14 15  1  0  0  0  0 
  3 35  1  6  0  0  0 
 15 16  1  0  0  0  0 
 35 36  1  0  0  0  0 
 16 18  1  0  0  0  0 
  2 37  1  1  0  0  0 
M  END
>  <MOLREGNO>
443683

>  <CHEMBLID>
CHEMBL486400

>  <SYNONYMS>
4-Epi-Hederagenin | Hederagenin

>  <MAX_PHASE>
0

>  <MOLWEIGHT>
472.7

>  <ALOGP>
5.36

>  <PSA>
77.76

>  <HBA>
4

>  <HBD>
3

>  <RO5>
1

>  <RTB>
2

>  <RO3>
N

>  <ACD_MOST_APKA>
4.63

>  <ACD_MOST_BPKA>


>  <ACD_LOGP>
7.07

>  <ACD_LOGD>
4.34

>  <AROMATIC_RINGS>
0

>  <HEAVY_ATOMS>
34

>  <QED_WEIGHTED>
.47

>  <HBA_LIPINSKI>
4

>  <HBD_LIPINSKI>
3

>  <NUM_LIPINSKI_RO5_VIOLATIONS>
1

>  <MW_MONOISOTOPIC>
472.3553

>  <MOLECULAR_SPECIES>
ACID

>  <FULL_MOLFORMULA>
C30H48O4

$$$$

  Mrv0541 04051115152D          

 16 18  0  0  0  0            999 V2000
   -0.3984    0.6941    0.0000 C   0  0  0  0  0  0  0  0  0  0  0  0
    2.3001    0.2816    0.0000 C   0  0  0  0  0  0  0  0  0  0  0  0
    1.8152    0.9490    0.0000 C   0  0  0  0  0  0  0  0  0  0  0  0
   -0.3984   -1.7809    0.0000 C   0  0  0  0  0  0  0  0  0  0  0  0
   -1.8273   -0.1309    0.0000 C   0  0  0  0  0  0  0  0  0  0  0  0
   -1.8273    0.6941    0.0000 C   0  0  0  0  0  0  0  0  0  0  0  0
   -1.1128    1.1066    0.0000 C   0  0  0  0  0  0  0  0  0  0  0  0
    0.3161    1.1066    0.0000 C   0  0  0  0  0  0  0  0  0  0  0  0
    1.0306    0.6941    0.0000 C   0  0  0  0  0  0  0  0  0  0  0  0
    1.0306   -0.1309    0.0000 C   0  0  0  0  0  0  0  0  0  0  0  0
    0.3161   -0.5434    0.0000 C   0  0  0  0  0  0  0  0  0  0  0  0
   -0.3984   -0.1309    0.0000 C   0  0  0  0  0  0  0  0  0  0  0  0
   -1.1128   -0.5434    0.0000 O   0  0  0  0  0  0  0  0  0  0  0  0
    1.8152   -0.3859    0.0000 O   0  0  0  0  0  0  0  0  0  0  0  0
    0.3161   -1.3684    0.0000 O   0  0  0  0  0  0  0  0  0  0  0  0
   -2.5418   -0.5434    0.0000 O   0  0  0  0  0  0  0  0  0  0  0  0
  1  7  1  0  0  0  0
  1  8  2  0  0  0  0
  1 12  1  0  0  0  0
  2  3  2  0  0  0  0
  2 14  1  0  0  0  0
  3  9  1  0  0  0  0
  4 15  1  0  0  0  0
  5  6  1  0  0  0  0
  5 13  1  0  0  0  0
  5 16  2  0  0  0  0
  6  7  2  0  0  0  0
  8  9  1  0  0  0  0
 10  9  2  0  0  0  0
 10 11  1  0  0  0  0
 10 14  1  0  0  0  0
 11 12  2  0  0  0  0
 11 15  1  0  0  0  0
 12 13  1  0  0  0  0
M  END
>  <MOLREGNO>
1063

>  <CHEMBLID>
CHEMBL416

>  <SYNONYMS>
XANTHOTOXIN | 8-MOP | OXSORALEN | METHOXSALEN | Uvadex | Oxsoralen-ultra | 8-METHOXYPSORALEN

>  <MAX_PHASE>
4

>  <MOLWEIGHT>
216.19

>  <ALOGP>
2.19

>  <PSA>
48.67

>  <HBA>
3

>  <HBD>
0

>  <RO5>
0

>  <RTB>
1

>  <RO3>
Y

>  <ACD_MOST_APKA>


>  <ACD_MOST_BPKA>


>  <ACD_LOGP>
1.52

>  <ACD_LOGD>
1.52

>  <AROMATIC_RINGS>
2

>  <HEAVY_ATOMS>
16

>  <QED_WEIGHTED>
.54

>  <HBA_LIPINSKI>
4

>  <HBD_LIPINSKI>
0

>  <NUM_LIPINSKI_RO5_VIOLATIONS>
0

>  <MW_MONOISOTOPIC>
216.0423

>  <MOLECULAR_SPECIES>


>  <FULL_MOLFORMULA>
C12H8O4

$$$$

  SciTegic01161211252D

 26 28  0  0  0  0            999 V2000
   -1.2435   -1.2361    0.0000 C   0  0  2  0  0  0
   -1.9609   -0.8288    0.0000 C   0  0
   -1.9669   -0.0038    0.0000 C   0  0  2  0  0  0
   -1.2554    0.4139    0.0000 C   0  0
   -0.5380    0.0066    0.0000 C   0  0  1  0  0  0
    0.1735    0.4242    0.0000 C   0  0  2  0  0  0
    0.1675    1.2492    0.0000 C   0  0
    0.8790    1.6669    0.0000 C   0  0
    1.5964    1.2596    0.0000 C   0  0  2  0  0  0
    1.6024    0.4346    0.0000 C   0  0
    0.8909    0.0169    0.0000 C   0  0
    0.8969   -0.8081    0.0000 C   0  0
    0.1854   -1.2257    0.0000 C   0  0
   -0.5320   -0.8184    0.0000 C   0  0  2  0  0  0
   -0.8258   -1.9475    0.0000 C   0  0
   -1.2331   -2.6650    0.0000 O   0  0
    2.4099    1.1222    0.0000 C   0  0
   -0.5435    0.8316    0.0000 C   0  0
   -1.8226   -1.8236    0.0000 C   0  0
    1.8729    2.0368    0.0000 C   0  0  2  0  0  0
    1.3381    2.6650    0.0000 C   0  0
    0.5267    2.5158    0.0000 O   0  0
    2.6843    2.1860    0.0000 O   0  0
   -2.6843    0.4035    0.0000 O   0  0
    0.1782   -0.4007    0.0000 H   0  0
   -0.5430   -1.6433    0.0000 H   0  0
  1  2  1  0
  2  3  1  0
  3  4  1  0
  4  5  1  0
  5  6  1  0
  6  7  1  0
  7  8  1  0
  8  9  1  0
  9 10  1  0
 10 11  2  0
  6 11  1  0
 11 12  1  0
 12 13  1  0
 13 14  1  0
  1 14  1  0
  5 14  1  0
 15 16  1  0
  1 15  1  6
  9 17  1  1
  5 18  1  6
  1 19  1  0
 20 21  1  0
 21 22  1  0
 20 23  1  6
  9 20  1  0
  3 24  1  1
  6 25  1  1
 14 26  1  1
M  END
>  <MOLREGNO>
614464

>  <CHEMBLID>
CHEMBL1089731

>  <SYNONYMS>
Kirenol

>  <MAX_PHASE>
0

>  <MOLWEIGHT>
338.48

>  <ALOGP>
1.77

>  <PSA>
80.92

>  <HBA>
4

>  <HBD>
4

>  <RO5>
0

>  <RTB>
3

>  <RO3>
N

>  <ACD_MOST_APKA>


>  <ACD_MOST_BPKA>


>  <ACD_LOGP>
1.9

>  <ACD_LOGD>
1.9

>  <AROMATIC_RINGS>
0

>  <HEAVY_ATOMS>
24

>  <QED_WEIGHTED>
.59

>  <HBA_LIPINSKI>
4

>  <HBD_LIPINSKI>
4

>  <NUM_LIPINSKI_RO5_VIOLATIONS>
0

>  <MW_MONOISOTOPIC>
338.2457

>  <MOLECULAR_SPECIES>
NEUTRAL

>  <FULL_MOLFORMULA>
C20H34O4

$$$$

  SciTegic12231509382D

 29 34  0  0  1  0            999 V2000
    4.8375   -3.7292    0.0000 C   0  0
    5.3917   -3.9042    0.0000 C   0  0
    4.8417   -3.1167    0.0000 C   0  0
    5.4042   -2.9417    0.0000 C   0  0  1  0  0  0
    5.7125   -3.4000    0.0000 O   0  0
    4.8917   -1.9917    0.0000 C   0  0
    5.4042   -2.3000    0.0000 C   0  0  2  0  0  0
    4.3167   -4.0167    0.0000 C   0  0
    5.9792   -1.9375    0.0000 N   0  0
    4.8917   -1.3917    0.0000 C   0  0
    4.3667   -2.3000    0.0000 C   0  0
    3.8500   -1.9917    0.0000 C   0  0
    3.8500   -1.3917    0.0000 C   0  0
    4.3125   -2.8167    0.0000 C   0  0
    4.3667   -1.0917    0.0000 C   0  0
    3.7792   -3.7292    0.0000 C   0  0
    4.1917   -4.6042    0.0000 O   0  0
    5.5000   -4.4292    0.0000 O   0  0
    3.2875   -2.1667    0.0000 O   0  0
    3.2667   -1.2125    0.0000 O   0  0
    3.3542   -4.1292    0.0000 O   0  0
    3.6125   -4.6792    0.0000 C   0  0
    2.9250   -1.7125    0.0000 C   0  0
    5.9292   -1.3917    0.0000 C   0  0
    5.4042   -1.0917    0.0000 C   0  0
    3.7917   -3.1167    0.0000 C   0  0
    6.7000   -2.4042    0.0000 C   0  0
    6.0000   -2.6125    0.0000 H   0  0
    4.8250   -2.4667    0.0000 H   0  0
  2  1  1  0
  3  1  2  0
  4  3  1  0
  5  2  1  0
  6  7  1  0
  7  4  1  0
  8  1  1  0
  9  7  1  0
 10  6  2  0
 11  6  1  0
 12 11  2  0
 13 12  1  0
 14  3  1  0
 15 10  1  0
 16  8  2  0
 17  8  1  0
 18  2  2  0
 19 12  1  0
 20 13  1  0
 21 16  1  0
 22 17  1  0
 23 19  1  0
 24  9  1  0
 25 24  1  0
 26 16  1  0
 27  9  1  0
  7 28  1  1
  4 29  1  1
  5  4  1  0
 22 21  1  0
 26 14  2  0
 25 10  1  0
 15 13  2  0
 23 20  1  0
M  END
>  <MOLREGNO>
14888

>  <CHEMBLID>
CHEMBL417990

>  <SYNONYMS>
(+)-Bicuculline | Bicuculline

>  <MAX_PHASE>
0

>  <MOLWEIGHT>
367.35

>  <ALOGP>
2.83

>  <PSA>
66.46

>  <HBA>
7

>  <HBD>
0

>  <RO5>
0

>  <RTB>
1

>  <RO3>
N

>  <ACD_MOST_APKA>
4.75

>  <ACD_MOST_BPKA>
8.82

>  <ACD_LOGP>
3.98

>  <ACD_LOGD>
1.47

>  <AROMATIC_RINGS>
2

>  <HEAVY_ATOMS>
27

>  <QED_WEIGHTED>
.72

>  <HBA_LIPINSKI>
7

>  <HBD_LIPINSKI>
0

>  <NUM_LIPINSKI_RO5_VIOLATIONS>
0

>  <MW_MONOISOTOPIC>
367.1056

>  <MOLECULAR_SPECIES>
ZWITTERION

>  <FULL_MOLFORMULA>
C20H17NO6

$$$$

  SciTegic06061310022D

 37 41  0  0  0  0            999 V2000
    1.7281    0.9679    0.0000 C   0  0  1  0  0  0
    2.1406    0.2535    0.0000 C   0  0  1  0  0  0
    1.7281   -0.4610    0.0000 C   0  0
    0.9031    0.9679    0.0000 C   0  0
    0.4906    0.2535    0.0000 C   0  0  1  0  0  0
    0.9031   -0.4610    0.0000 C   0  0  1  0  0  0
    0.4906   -1.1755    0.0000 C   0  0
   -0.3344   -1.1755    0.0000 C   0  0
   -0.3344    0.2535    0.0000 C   0  0  2  0  0  0
   -0.7469   -0.4610    0.0000 C   0  0  2  0  0  0
   -1.5719    0.9679    0.0000 C   0  0
   -0.7469    0.9679    0.0000 C   0  0
   -1.9844    0.2535    0.0000 C   0  0
   -1.5719   -0.4610    0.0000 C   0  0  1  0  0  0
   -1.9844   -1.1755    0.0000 C   0  0
   -2.8094   -1.1755    0.0000 C   0  0
   -2.8094    0.2535    0.0000 C   0  0  1  0  0  0
   -3.2219   -0.4610    0.0000 C   0  0  2  0  0  0
   -4.0469   -0.4610    0.0000 C   0  0
   -4.4594    0.2535    0.0000 C   0  0
   -4.0469    0.9679    0.0000 C   0  0  2  0  0  0
   -3.2219    0.9679    0.0000 C   0  0  2  0  0  0
    2.1406    1.6824    0.0000 O   0  0
    2.9656    0.2535    0.0000 O   0  0
    0.0781    0.9679    0.0000 C   0  0
   -1.1594   -1.1755    0.0000 C   0  0
   -2.3969    0.9679    0.0000 H   0  0
   -2.8094    1.6824    0.0000 C   0  0
   -3.6344   -1.1755    0.0000 C   0  0
   -4.4594   -1.1755    0.0000 O   0  0
   -3.2219   -1.8900    0.0000 O   0  0
    1.3156   -1.1755    0.0000 H   0  0
   -0.1911    1.0659    0.0000 H   0  0
   -1.6581   -1.2815    0.0000 C   0  0
   -4.4594    1.6824    0.0000 C   0  0
    1.7569   -1.2855    0.0000 C   0  0
    2.4278   -0.8982    0.0000 C   0  0
 17 18  1  0
  6  7  1  0
  7  8  1  0
  8 10  1  0
  9 10  1  0
  3  6  1  0
  5  4  1  0
 17 22  1  0
 18 19  1  0
 19 20  1  0
 20 21  1  0
 21 22  1  0
  5  6  1  0
  1 23  1  1
  2 24  1  6
  9 12  1  0
  5 25  1  6
 10 14  1  0
 10 26  1  6
 13 11  2  0
 17 27  1  6
 11 12  1  0
 22 28  1  6
 13 14  1  0
 18 29  1  6
  1  2  1  0
 29 30  2  0
  1  4  1  0
 29 31  1  0
  2  3  1  0
  6 32  1  1
  5  9  1  0
  9 33  1  1
 13 17  1  0
 14 34  1  1
 14 15  1  0
 21 35  1  1
 15 16  1  0
  3 36  1  0
 16 18  1  0
  3 37  1  0
M  END
>  <MOLREGNO>
399211

>  <CHEMBLID>
CHEMBL391533

>  <SYNONYMS>
Corosolic Acid

>  <MAX_PHASE>
0

>  <MOLWEIGHT>
472.7

>  <ALOGP>
5.53

>  <PSA>
77.76

>  <HBA>
4

>  <HBD>
3

>  <RO5>
1

>  <RTB>
1

>  <RO3>
N

>  <ACD_MOST_APKA>
4.67

>  <ACD_MOST_BPKA>


>  <ACD_LOGP>
7.11

>  <ACD_LOGD>
4.42

>  <AROMATIC_RINGS>
0

>  <HEAVY_ATOMS>
34

>  <QED_WEIGHTED>
.44

>  <HBA_LIPINSKI>
4

>  <HBD_LIPINSKI>
3

>  <NUM_LIPINSKI_RO5_VIOLATIONS>
1

>  <MW_MONOISOTOPIC>
472.3553

>  <MOLECULAR_SPECIES>
ACID

>  <FULL_MOLFORMULA>
C30H48O4

$$$$

  SciTegic12231509382D

 35 39  0  0  1  0            999 V2000
   -5.3242  -12.3254    0.0000 C   0  0
   -5.3242  -13.1527    0.0000 C   0  0  1  0  0  0
   -4.6117  -13.5640    0.0000 C   0  0
   -4.6117  -11.9095    0.0000 C   0  0
   -3.8948  -12.3254    0.0000 C   0  0  1  0  0  0
   -3.8983  -13.1527    0.0000 C   0  0  1  0  0  0
   -3.1877  -13.5669    0.0000 C   0  0
   -2.4689  -13.1587    0.0000 C   0  0
   -3.1805  -11.9126    0.0000 C   0  0  2  0  0  0
   -2.4679  -12.3329    0.0000 C   0  0  2  0  0  0
   -2.4544  -10.6811    0.0000 C   0  0
   -3.1769  -11.0876    0.0000 C   0  0
   -1.7417  -11.1014    0.0000 C   0  0  1  0  0  0
   -1.7549  -11.9279    0.0000 C   0  0  1  0  0  0
   -1.0497  -12.3500    0.0000 C   0  0
   -0.3269  -11.9506    0.0000 C   0  0
   -1.0233  -10.6972    0.0000 C   0  0  2  0  0  0
   -0.3149  -11.1228    0.0000 C   0  0  2  0  0  0
    0.3089  -10.5804    0.0000 C   0  0
   -0.0143   -9.8197    0.0000 C   0  0
   -0.8375   -9.8918    0.0000 C   0  0  1  0  0  0
   -5.3287  -13.9707    0.0000 C   0  0
   -4.4056  -14.3546    0.0000 C   0  0
   -3.9028  -13.9707    0.0000 H   0  0
   -3.1854  -12.7321    0.0000 H   0  0
   -1.7595  -12.7459    0.0000 C   0  0
   -1.0283  -11.5165    0.0000 H   0  0
   -1.3774   -9.2711    0.0000 C   0  0
   -3.9028  -11.5028    0.0000 C   0  0
   -2.4769  -11.5074    0.0000 C   0  0
   -1.7503  -10.2780    0.0000 H   0  0
    0.3930  -11.5303    0.0000 C   0  0
   -1.1096   -8.4933    0.0000 C   0  0
   -2.1849   -9.4283    0.0000 C   0  0
   -6.0365  -13.5640    0.0000 O   0  0
  5  9  1  0
  6  7  1  0
  7  8  1  0
  8 10  1  0
  9 10  1  0
 18 19  1  0
 19 20  1  0
 20 21  1  0
 21 17  1  0
  2  3  1  0
  3 22  1  0
  3  6  1  0
  3 23  1  0
  5  4  1  0
  6 24  1  6
  5  6  1  0
  9 25  1  6
  9 12  1  0
 14 26  1  6
 10 14  1  0
 17 27  1  6
 13 11  1  0
 21 28  1  6
 11 12  1  0
  5 29  1  1
 13 14  1  0
 10 30  1  1
 13 31  1  1
  1  2  1  0
 18 32  1  1
 28 33  1  0
  1  4  1  0
 28 34  2  0
 13 17  1  0
  2 35  1  1
 14 15  1  0
 15 16  1  0
 16 18  1  0
 17 18  1  0
M  END
>  <MOLREGNO>
71670

>  <CHEMBLID>
CHEMBL289191

>  <SYNONYMS>
Fagarasterol | Lupeol | Monogynol B | Clerodol | Farganasterol

>  <MAX_PHASE>
0

>  <MOLWEIGHT>
426.72

>  <ALOGP>
7.4

>  <PSA>
20.23

>  <HBA>
1

>  <HBD>
1

>  <RO5>
1

>  <RTB>
1

>  <RO3>
N

>  <ACD_MOST_APKA>
12.44

>  <ACD_MOST_BPKA>
.84

>  <ACD_LOGP>
3.49

>  <ACD_LOGD>
3.49

>  <AROMATIC_RINGS>
0

>  <HEAVY_ATOMS>
31

>  <QED_WEIGHTED>
.43

>  <HBA_LIPINSKI>
1

>  <HBD_LIPINSKI>
1

>  <NUM_LIPINSKI_RO5_VIOLATIONS>
1

>  <MW_MONOISOTOPIC>
426.3862

>  <MOLECULAR_SPECIES>
NEUTRAL

>  <FULL_MOLFORMULA>
C30H50O

$$$$

  SciTegic12011114242D

 13 14  0  0  0  0            999 V2000
   -3.5403    2.0065    0.0000 C   0  0
   -3.5403    1.1815    0.0000 C   0  0  2  0  0  0
   -2.8277    0.7753    0.0000 C   0  0  1  0  0  0
   -2.8277    2.4252    0.0000 C   0  0
   -2.1152    2.0065    0.0000 C   0  0
   -2.1152    1.1805    0.0000 C   0  0  2  0  0  0
   -1.3294    0.9264    0.0000 O   0  0
   -0.8422    1.5955    0.0000 C   0  0
   -1.3294    2.2603    0.0000 C   0  0
   -0.0172    1.5955    0.0000 O   0  0
   -4.2547    0.7701    0.0000 O   0  0
   -2.8282   -0.0497    0.0000 O   0  0
   -2.1225    0.3565    0.0000 H   0  0
  1  4  2  0
  2  3  1  0
  3  6  1  0
  6  7  1  0
  7  8  1  0
  8  9  1  0
  9  5  2  0
  5  4  1  0
  8 10  2  0
  5  6  1  0
  2 11  1  6
  3 12  1  1
  1  2  1  0
  6 13  1  1
M  END
>  <MOLREGNO>
1170090

>  <CHEMBLID>
CHEMBL1817898

>  <SYNONYMS>
Griffonilide

>  <MAX_PHASE>
0

>  <MOLWEIGHT>
168.15

>  <ALOGP>
-.42

>  <PSA>
66.76

>  <HBA>
4

>  <HBD>
2

>  <RO5>
0

>  <RTB>
0

>  <RO3>
N

>  <ACD_MOST_APKA>
12.63

>  <ACD_MOST_BPKA>


>  <ACD_LOGP>
-3.39

>  <ACD_LOGD>
-3.39

>  <AROMATIC_RINGS>
0

>  <HEAVY_ATOMS>
12

>  <QED_WEIGHTED>
.48

>  <HBA_LIPINSKI>
4

>  <HBD_LIPINSKI>
2

>  <NUM_LIPINSKI_RO5_VIOLATIONS>
0

>  <MW_MONOISOTOPIC>
168.0423

>  <MOLECULAR_SPECIES>
NEUTRAL

>  <FULL_MOLFORMULA>
C8H8O4

$$$$

  CDK    9/16/09,9:20

 28 31  0  0  0  0  0  0  0  0999 V2000
   -2.9439   -0.9946    0.0000 O   0  0  0  0  0  0  0  0  0  0  0  0
   -3.4286   -1.6642    0.0000 C   0  0  0  0  0  0  0  0  0  0  0  0
   -2.9439   -2.3297    0.0000 O   0  0  0  0  0  0  0  0  0  0  0  0
   -2.1592   -2.0767    0.0000 C   0  0  0  0  0  0  0  0  0  0  0  0
   -2.1592   -1.2517    0.0000 C   0  0  0  0  0  0  0  0  0  0  0  0
   -1.4434   -2.4892    0.0000 C   0  0  0  0  0  0  0  0  0  0  0  0
   -0.7317   -2.0767    0.0000 C   0  0  0  0  0  0  0  0  0  0  0  0
   -0.7317   -1.2517    0.0000 C   0  0  0  0  0  0  0  0  0  0  0  0
   -1.4434   -0.8392    0.0000 C   0  0  0  0  0  0  0  0  0  0  0  0
   -0.0158   -0.8392    0.0000 C   0  0  0  0  0  0  0  0  0  0  0  0
    0.7001   -1.2517    0.0000 C   0  0  0  0  0  0  0  0  0  0  0  0
    0.7001   -2.0767    0.0000 C   0  0  0  0  0  0  0  0  0  0  0  0
   -0.0158   -2.4892    0.0000 O   0  0  0  0  0  0  0  0  0  0  0  0
   -0.0158   -0.0142    0.0000 O   0  0  0  0  0  0  0  0  0  0  0  0
    1.4159   -0.8392    0.0000 C   0  0  0  0  0  0  0  0  0  0  0  0
    1.4159   -0.0142    0.0000 C   0  0  0  0  0  0  0  0  0  0  0  0
    2.1276    0.3983    0.0000 C   0  0  0  0  0  0  0  0  0  0  0  0
    2.8435   -0.0142    0.0000 C   0  0  0  0  0  0  0  0  0  0  0  0
    2.8435   -0.8392    0.0000 C   0  0  0  0  0  0  0  0  0  0  0  0
    2.1276   -1.2517    0.0000 C   0  0  0  0  0  0  0  0  0  0  0  0
    3.5552   -1.2517    0.0000 O   0  0  0  0  0  0  0  0  0  0  0  0
    4.2710   -0.8392    0.0000 C   0  0  0  0  0  0  0  0  0  0  0  0
    3.5552    0.3983    0.0000 O   0  0  0  0  0  0  0  0  0  0  0  0
    4.2710   -0.0142    0.0000 C   0  0  0  0  0  0  0  0  0  0  0  0
    2.1276    1.2233    0.0000 O   0  0  0  0  0  0  0  0  0  0  0  0
    2.8435    1.6358    0.0000 C   0  0  0  0  0  0  0  0  0  0  0  0
   -1.4434   -0.0142    0.0000 O   0  0  0  0  0  0  0  0  0  0  0  0
   -2.1592    0.3983    0.0000 C   0  0  0  0  0  0  0  0  0  0  0  0
  1  2  1  0  0  0  0 
  2  3  1  0  0  0  0 
  3  4  1  0  0  0  0 
  4  5  1  0  0  0  0 
  1  5  1  0  0  0  0 
  6  7  1  0  0  0  0 
  7  8  2  0  0  0  0 
  8  9  1  0  0  0  0 
  5  9  2  0  0  0  0 
  4  6  2  0  0  0  0 
 10 11  1  0  0  0  0 
 11 12  2  0  0  0  0 
 12 13  1  0  0  0  0 
  7 13  1  0  0  0  0 
  8 10  1  0  0  0  0 
 10 14  2  0  0  0  0 
 15 16  1  0  0  0  0 
 16 17  2  0  0  0  0 
 17 18  1  0  0  0  0 
 18 19  2  0  0  0  0 
 19 20  1  0  0  0  0 
 15 20  2  0  0  0  0 
 21 22  1  0  0  0  0 
 19 21  1  0  0  0  0 
 23 24  1  0  0  0  0 
 18 23  1  0  0  0  0 
 25 26  1  0  0  0  0 
 17 25  1  0  0  0  0 
 11 15  1  0  0  0  0 
 27 28  1  0  0  0  0 
  9 27  1  0  0  0  0 
M  END
>  <MOLREGNO>
445851

>  <CHEMBLID>
CHEMBL487216

>  <SYNONYMS>
Irisflorentin

>  <MAX_PHASE>
0

>  <MOLWEIGHT>
386.35

>  <ALOGP>
2.57

>  <PSA>
81.68

>  <HBA>
8

>  <HBD>
0

>  <RO5>
0

>  <RTB>
5

>  <RO3>
N

>  <ACD_MOST_APKA>


>  <ACD_MOST_BPKA>


>  <ACD_LOGP>
.6

>  <ACD_LOGD>
.6

>  <AROMATIC_RINGS>
2

>  <HEAVY_ATOMS>
28

>  <QED_WEIGHTED>
.78

>  <HBA_LIPINSKI>
8

>  <HBD_LIPINSKI>
0

>  <NUM_LIPINSKI_RO5_VIOLATIONS>
0

>  <MW_MONOISOTOPIC>
386.1002

>  <MOLECULAR_SPECIES>


>  <FULL_MOLFORMULA>
C20H18O8

$$$$

  SciTegic01161211242D

 28 33  0  0  0  0            999 V2000
   12.4215   -8.6194    0.0000 C   0  0  1  0  0  0
   11.7049   -8.2026    0.0000 C   0  0
   12.4215   -9.4415    0.0000 N   0  0
   11.7061   -9.8499    0.0000 C   0  0  2  0  0  0
   11.6961  -10.6724    0.0000 C   0  0
   12.4031  -11.0876    0.0000 C   0  0  2  0  0  0
   13.1185  -10.6837    0.0000 C   0  0
   13.1313   -9.8557    0.0000 C   0  0
   11.6099   -9.4386    0.0000 O   0  0
   11.4173   -7.7500    0.0000 C   0  0  1  0  0  0
   10.9955   -9.4415    0.0000 C   0  0  2  0  0  0
   10.9955   -8.6166    0.0000 C   0  0  2  0  0  0
   10.2090   -9.7016    0.0000 N   0  0
    9.7197   -9.0289    0.0000 C   0  0
   10.2097   -8.3542    0.0000 C   0  0
    9.8742   -7.6006    0.0000 C   0  0
    9.0427   -7.5159    0.0000 C   0  0
    8.5614   -8.1862    0.0000 C   0  0
    8.8985   -8.9500    0.0000 C   0  0
   13.8267  -11.0987    0.0000 C   0  0
   13.8197  -11.9177    0.0000 C   0  0
   11.8451   -6.9550    0.0000 C   0  0
   12.6642   -6.9438    0.0000 O   0  0
   11.4298   -6.2402    0.0000 O   0  0
   13.0680   -6.2355    0.0000 C   0  0
   10.9926  -10.2548    0.0000 H   0  0
   12.4031  -11.8103    0.0000 H   0  0
   12.9721   -8.0645    0.0000 H   0  0
 12  2  1  0
 11  4  1  0
  3  1  1  0
  1  2  1  0
  3  4  1  0
  3  8  1  0
  4  5  1  0
  5  6  1  0
  6  7  1  0
  7  8  1  0
 11  9  1  6
  9  1  1  0
 12 10  1  0
  6 10  1  0
 11 12  1  0
 12 15  1  6
 14 13  1  0
 13 11  1  0
 14 15  2  0
 14 19  1  0
 15 16  1  0
 16 17  2  0
 17 18  1  0
 18 19  2  0
  7 20  2  0
 20 21  1  0
 10 22  1  6
 22 23  1  0
 22 24  2  0
 23 25  1  0
  4 26  1  6
  6 27  1  1
  1 28  1  6
M  END
>  <MOLREGNO>
597610

>  <CHEMBLID>
CHEMBL590510

>  <SYNONYMS>
Picrinine

>  <MAX_PHASE>
0

>  <MOLWEIGHT>
338.4

>  <ALOGP>
2.21

>  <PSA>
50.8

>  <HBA>
5

>  <HBD>
1

>  <RO5>
0

>  <RTB>
2

>  <RO3>
N

>  <ACD_MOST_APKA>


>  <ACD_MOST_BPKA>
4.47

>  <ACD_LOGP>
2.36

>  <ACD_LOGD>
2.36

>  <AROMATIC_RINGS>
1

>  <HEAVY_ATOMS>
25

>  <QED_WEIGHTED>
.66

>  <HBA_LIPINSKI>
5

>  <HBD_LIPINSKI>
1

>  <NUM_LIPINSKI_RO5_VIOLATIONS>
0

>  <MW_MONOISOTOPIC>
338.163

>  <MOLECULAR_SPECIES>
NEUTRAL

>  <FULL_MOLFORMULA>
C20H22N2O3

$$$$

  CDK    9/16/09,9:19

 29 34  0  0  0  0  0  0  0  0999 V2000
   -3.1385   -0.6806    0.0000 C   0  0  0  0  0  0  0  0  0  0  0  0
   -3.1405    0.9600    0.0000 C   0  0  0  0  0  0  0  0  0  0  0  0
   -3.8459   -0.2709    0.0000 C   0  0  0  0  0  0  0  0  0  0  0  0
   -3.8446    0.5519    0.0000 C   0  0  0  0  0  0  0  0  0  0  0  0
   -4.6267    0.8074    0.0000 O   0  0  0  0  0  0  0  0  0  0  0  0
   -5.1114    0.1426    0.0000 C   0  0  0  0  0  0  0  0  0  0  0  0
   -4.6289   -0.5238    0.0000 O   0  0  0  0  0  0  0  0  0  0  0  0
   -2.4278    0.5543    0.0000 C   0  0  0  0  0  0  0  0  0  0  0  0
   -2.4241   -0.2729    0.0000 C   0  0  0  0  0  0  0  0  0  0  0  0
   -1.7099   -0.6810    0.0000 O   0  0  0  0  0  0  0  0  0  0  0  0
   -1.7172    0.9734    0.0000 C   0  0  0  0  0  0  0  0  0  0  0  0
   -0.2807    1.8003    0.0000 C   0  0  0  0  0  0  0  0  0  0  0  0
   -0.9995    2.2155    0.0000 C   0  0  0  0  0  0  0  0  0  0  0  0
   -1.7209    1.8013    0.0000 C   0  0  0  0  0  0  0  0  0  0  0  0
   -0.2833    0.9707    0.0000 C   0  0  0  0  0  0  0  0  0  0  0  0
   -1.0022    0.5584    0.0000 C   0  0  0  0  0  0  0  0  0  0  0  0
   -1.0048   -0.2659    0.0000 C   0  0  0  0  0  0  0  0  0  0  0  0
   -0.2899   -0.6841    0.0000 C   0  0  0  0  0  0  0  0  0  0  0  0
    0.4292   -0.2718    0.0000 C   0  0  0  0  0  0  0  0  0  0  0  0
    0.4333    0.5588    0.0000 C   0  0  0  0  0  0  0  0  0  0  0  0
   -1.7238    0.1591    0.0000 H   0  0  0  0  0  0  0  0  0  0  0  0
   -2.4304    2.2098    0.0000 C   0  0  0  0  0  0  0  0  0  0  0  0
   -0.9985    3.0341    0.0000 C   0  0  0  0  0  0  0  0  0  0  0  0
    1.1429    0.9669    0.0000 O   0  0  0  0  0  0  0  0  0  0  0  0
   -1.2189   -1.0506    0.0000 O   0  0  0  0  0  0  0  0  0  0  0  0
   -1.0097   -1.8374    0.0000 C   0  0  0  0  0  0  0  0  0  0  0  0
   -0.2229   -1.6237    0.0000 O   0  0  0  0  0  0  0  0  0  0  0  0
   -1.0097    1.3781    0.0000 H   0  0  0  0  0  0  0  0  0  0  0  0
   -0.2911    0.1547    0.0000 H   0  0  0  0  0  0  0  0  0  0  0  0
 11 14  1  0  0  0  0 
 15 12  1  0  0  0  0 
 12 13  1  0  0  0  0 
 13 14  1  0  0  0  0 
 15 16  1  0  0  0  0 
  5  6  1  0  0  0  0 
  6  7  1  0  0  0  0 
  7  3  1  0  0  0  0 
  8  9  1  0  0  0  0 
  3  4  2  0  0  0  0 
  3  1  1  0  0  0  0 
 15 20  1  0  0  0  0 
 16 17  1  0  0  0  0 
 17 18  1  0  0  0  0 
 18 19  2  0  0  0  0 
 19 20  1  0  0  0  0 
  1  9  2  0  0  0  0 
 11 21  1  1  0  0  0 
  8 11  1  0  0  0  0 
 14 22  1  1  0  0  0 
  9 10  1  0  0  0  0 
 13 23  1  6  0  0  0 
 10 17  1  0  0  0  0 
 20 24  2  0  0  0  0 
 11 16  1  0  0  0  0 
 17 25  1  1  0  0  0 
 25 26  1  0  0  0  0 
  8  2  2  0  0  0  0 
 26 27  1  0  0  0  0 
 18 27  1  0  0  0  0 
  2  4  1  0  0  0  0 
 16 28  1  1  0  0  0 
  4  5  1  0  0  0  0 
 15 29  1  6  0  0  0 
M  END
>  <MOLREGNO>
442696

>  <CHEMBLID>
CHEMBL520054

>  <SYNONYMS>
Sauchinone

>  <MAX_PHASE>
0

>  <MOLWEIGHT>
356.37

>  <ALOGP>
2.79

>  <PSA>
63.22

>  <HBA>
6

>  <HBD>
0

>  <RO5>
0

>  <RTB>
0

>  <RO3>
N

>  <ACD_MOST_APKA>


>  <ACD_MOST_BPKA>


>  <ACD_LOGP>
4.89

>  <ACD_LOGD>
4.89

>  <AROMATIC_RINGS>
1

>  <HEAVY_ATOMS>
26

>  <QED_WEIGHTED>
.71

>  <HBA_LIPINSKI>
6

>  <HBD_LIPINSKI>
0

>  <NUM_LIPINSKI_RO5_VIOLATIONS>
0

>  <MW_MONOISOTOPIC>
356.126

>  <MOLECULAR_SPECIES>


>  <FULL_MOLFORMULA>
C20H20O6

$$$$

  CDK    9/16/09,9:47

 25 27  0  0  0  0  0  0  0  0999 V2000
    9.3466   -1.1909    0.0000 C   0  0  0  0  0  0  0  0  0  0  0  0
    9.5886   -1.9821    0.0000 C   0  0  0  0  0  0  0  0  0  0  0  0
   10.3932   -2.1667    0.0000 C   0  0  0  0  0  0  0  0  0  0  0  0
    9.9057   -0.5872    0.0000 C   0  0  0  0  0  0  0  0  0  0  0  0
   10.7097   -0.7680    0.0000 C   0  0  0  0  0  0  0  0  0  0  0  0
   10.9529   -1.5579    0.0000 C   0  0  0  0  0  0  0  0  0  0  0  0
   11.3858   -0.2928    0.0000 O   0  0  0  0  0  0  0  0  0  0  0  0
   12.0469   -0.7888    0.0000 C   0  0  0  0  0  0  0  0  0  0  0  0
   11.7773   -1.5695    0.0000 C   0  0  0  0  0  0  0  0  0  0  0  0
   12.3181   -2.1912    0.0000 C   0  0  0  0  0  0  0  0  0  0  0  0
   13.1286   -2.0334    0.0000 C   0  0  0  0  0  0  0  0  0  0  0  0
   13.3954   -1.2485    0.0000 C   0  0  0  0  0  0  0  0  0  0  0  0
   12.8528   -0.6301    0.0000 C   0  0  0  0  0  0  0  0  0  0  0  0
   11.5584   -2.3625    0.0000 C   0  0  0  0  0  0  0  0  0  0  0  0
   12.0498   -2.9713    0.0000 O   0  0  0  0  0  0  0  0  0  0  0  0
   14.2045   -1.0876    0.0000 O   0  0  0  0  0  0  0  0  0  0  0  0
    9.6603    0.2036    0.0000 C   0  0  0  0  0  0  0  0  0  0  0  0
    8.8556    0.3855    0.0000 O   0  0  0  0  0  0  0  0  0  0  0  0
    9.0264   -2.5859    0.0000 C   0  0  0  0  0  0  0  0  0  0  0  0
    8.5424   -1.0068    0.0000 O   0  0  0  0  0  0  0  0  0  0  0  0
   13.6740   -2.6549    0.0000 C   0  0  0  0  0  0  0  0  0  0  0  0
   14.4835   -2.4958    0.0000 O   0  0  0  0  0  0  0  0  0  0  0  0
   10.6377   -2.9546    0.0000 O   0  0  0  0  0  0  0  0  0  0  0  0
   10.2203    0.8094    0.0000 C   0  0  0  0  0  0  0  0  0  0  0  0
   13.4080   -3.4358    0.0000 C   0  0  0  0  0  0  0  0  0  0  0  0
  2  3  1  0  0  0  0 
 12 13  1  0  0  0  0 
 13  8  2  0  0  0  0 
  3  6  2  0  0  0  0 
  9 14  1  1  0  0  0 
  6  9  1  0  0  0  0 
 10 15  2  0  0  0  0 
  8  7  1  0  0  0  0 
 12 16  1  0  0  0  0 
  7  5  1  0  0  0  0 
  1  2  2  0  0  0  0 
  5  4  2  0  0  0  0 
 17 18  2  0  0  0  0 
  4 17  1  0  0  0  0 
  8  9  1  0  0  0  0 
  4  1  1  0  0  0  0 
  2 19  1  0  0  0  0 
  9 10  1  0  0  0  0 
  1 20  1  0  0  0  0 
  5  6  1  0  0  0  0 
 10 11  1  0  0  0  0 
 21 22  2  0  0  0  0 
 11 21  1  0  0  0  0 
 11 12  2  0  0  0  0 
  3 23  1  0  0  0  0 
 17 24  1  0  0  0  0 
 21 25  1  0  0  0  0 
M  END
>  <MOLREGNO>
293021

>  <CHEMBLID>
CHEMBL367881

>  <SYNONYMS>
(+)-Usnic acid | NSC-685596

>  <MAX_PHASE>
0

>  <MOLWEIGHT>
344.32

>  <ALOGP>
1.09

>  <PSA>
121.13

>  <HBA>
7

>  <HBD>
3

>  <RO5>
0

>  <RTB>
2

>  <RO3>
N

>  <ACD_MOST_APKA>
4.5

>  <ACD_MOST_BPKA>


>  <ACD_LOGP>
5.47

>  <ACD_LOGD>
2.34

>  <AROMATIC_RINGS>
1

>  <HEAVY_ATOMS>
25

>  <QED_WEIGHTED>
.54

>  <HBA_LIPINSKI>
7

>  <HBD_LIPINSKI>
3

>  <NUM_LIPINSKI_RO5_VIOLATIONS>
0

>  <MW_MONOISOTOPIC>
344.0896

>  <MOLECULAR_SPECIES>
ACID

>  <FULL_MOLFORMULA>
C18H16O7

$$$$

  SciTegic11261411062D

 25 27  0  0  0  0            999 V2000
    4.0594   -3.3962    0.0000 O   0  0
    4.7690   -0.7290    0.0000 O   0  0
    3.3498   -0.7290    0.0000 O   0  0
    1.2260   -2.6413    0.0000 O   0  0
    6.8928   -2.6413    0.0000 O   0  0
    1.5231   -4.0390    0.0000 O   0  0
    6.1280   -0.2874    0.0000 O   0  0
    4.4719   -2.1267    0.0000 C   0  0
    3.6469   -2.1267    0.0000 C   0  0
    4.7268   -2.9113    0.0000 C   0  0
    3.3919   -2.9113    0.0000 C   0  0
    5.0239   -1.5136    0.0000 C   0  0
    3.0948   -1.5136    0.0000 C   0  0
    2.5850   -3.0828    0.0000 C   0  0
    5.8309   -1.6851    0.0000 C   0  0
    2.2879   -1.6851    0.0000 C   0  0
    5.5338   -3.0828    0.0000 C   0  0
    2.0329   -2.4698    0.0000 C   0  0
    6.0858   -2.4698    0.0000 C   0  0
    4.1363   -1.3730    0.0000 C   0  0
    2.3300   -3.8675    0.0000 C   0  0
    6.3829   -1.0720    0.0000 C   0  0
    1.7358   -1.0720    0.0000 C   0  0
    2.8821   -4.4806    0.0000 C   0  0
    7.1899   -1.2436    0.0000 C   0  0
  1 10  1  0
  1 11  1  0
  2 12  1  0
  3 13  1  0
  4 18  1  0
  5 19  2  0
  6 21  2  0
  7 22  2  0
  8  9  1  0
  8 10  1  0
  8 12  1  0
  8 20  1  0
  9 11  2  0
  9 13  1  0
 10 17  2  0
 11 14  1  0
 12 15  2  0
 13 16  2  0
 14 18  2  0
 14 21  1  0
 15 19  1  0
 15 22  1  0
 16 18  1  0
 16 23  1  0
 17 19  1  0
 21 24  1  0
 22 25  1  0
M  END
>  <MOLREGNO>
738421

>  <CHEMBLID>
CHEMBL1314537

>  <SYNONYMS>
Usnic Acid

>  <MAX_PHASE>
0

>  <MOLWEIGHT>
344.32

>  <ALOGP>
1.09

>  <PSA>
121.13

>  <HBA>
7

>  <HBD>
3

>  <RO5>
0

>  <RTB>
2

>  <RO3>
N

>  <ACD_MOST_APKA>
4.5

>  <ACD_MOST_BPKA>


>  <ACD_LOGP>
2.09

>  <ACD_LOGD>
-1.1

>  <AROMATIC_RINGS>
1

>  <HEAVY_ATOMS>
25

>  <QED_WEIGHTED>
.54

>  <HBA_LIPINSKI>
7

>  <HBD_LIPINSKI>
3

>  <NUM_LIPINSKI_RO5_VIOLATIONS>
0

>  <MW_MONOISOTOPIC>
344.0896

>  <MOLECULAR_SPECIES>
ACID

>  <FULL_MOLFORMULA>
C18H16O7

$$$$

  CDK    9/16/09,9:20

 31 34  0  0  0  0  0  0  0  0999 V2000
    6.8997   -2.0818    0.0000 O   0  0  0  0  0  0  0  0  0  0  0  0
    6.8927   -2.9002    0.0000 C   0  0  0  0  0  0  0  0  0  0  0  0
    7.6038   -3.3182    0.0000 C   0  0  0  0  0  0  0  0  0  0  0  0
    8.3233   -2.9167    0.0000 O   0  0  0  0  0  0  0  0  0  0  0  0
    7.5953   -4.1502    0.0000 C   0  0  0  0  0  0  0  0  0  0  0  0
    8.3065   -4.5641    0.0000 O   0  0  0  0  0  0  0  0  0  0  0  0
    6.8757   -4.5559    0.0000 C   0  0  0  0  0  0  0  0  0  0  0  0
    6.8695   -5.3750    0.0000 O   0  0  0  0  0  0  0  0  0  0  0  0
    6.1647   -4.1337    0.0000 C   0  0  0  0  0  0  0  0  0  0  0  0
    6.1731   -3.3100    0.0000 O   0  0  0  0  0  0  0  0  0  0  0  0
    5.4514   -4.5430    0.0000 C   0  0  0  0  0  0  0  0  0  0  0  0
    5.4753   -2.0818    0.0000 C   0  0  0  0  0  0  0  0  0  0  0  0
    6.1875   -1.6673    0.0000 C   0  0  0  0  0  0  0  0  0  0  0  0
    6.1875   -0.8424    0.0000 C   0  0  0  0  0  0  0  0  0  0  0  0
    5.4753   -0.4319    0.0000 O   0  0  0  0  0  0  0  0  0  0  0  0
    4.7631   -0.8424    0.0000 C   0  0  0  0  0  0  0  0  0  0  0  0
    4.0466   -0.4319    0.0000 C   0  0  0  0  0  0  0  0  0  0  0  0
    3.3303   -0.8424    0.0000 C   0  0  0  0  0  0  0  0  0  0  0  0
    3.3303   -1.6673    0.0000 C   0  0  0  0  0  0  0  0  0  0  0  0
    4.0466   -2.0818    0.0000 C   0  0  0  0  0  0  0  0  0  0  0  0
    4.7631   -1.6673    0.0000 C   0  0  0  0  0  0  0  0  0  0  0  0
    4.0466   -2.9068    0.0000 O   0  0  0  0  0  0  0  0  0  0  0  0
    2.6139   -0.4319    0.0000 O   0  0  0  0  0  0  0  0  0  0  0  0
    6.8997   -0.4319    0.0000 C   0  0  0  0  0  0  0  0  0  0  0  0
    7.6162   -0.8424    0.0000 C   0  0  0  0  0  0  0  0  0  0  0  0
    8.3325   -0.4319    0.0000 C   0  0  0  0  0  0  0  0  0  0  0  0
    8.3325    0.3931    0.0000 C   0  0  0  0  0  0  0  0  0  0  0  0
    7.6162    0.8076    0.0000 C   0  0  0  0  0  0  0  0  0  0  0  0
    6.8997    0.3931    0.0000 C   0  0  0  0  0  0  0  0  0  0  0  0
    9.0489    0.8076    0.0000 O   0  0  0  0  0  0  0  0  0  0  0  0
    7.6036   -2.4808    0.0000 H   0  0  0  0  0  0  0  0  0  0  0  0
  7  9  1  0  0  0  0 
  9 10  1  0  0  0  0 
  9 11  1  6  0  0  0 
  2 10  1  0  0  0  0 
  2  1  1  0  0  0  0 
  2  3  1  0  0  0  0 
  3  4  1  6  0  0  0 
  3  5  1  0  0  0  0 
  5  6  1  6  0  0  0 
  5  7  1  0  0  0  0 
 12 13  1  0  0  0  0 
 13 14  1  0  0  0  0 
 14 15  1  0  0  0  0 
 15 16  1  0  0  0  0 
 16 17  2  0  0  0  0 
 17 18  1  0  0  0  0 
 18 19  2  0  0  0  0 
 19 20  1  0  0  0  0 
 20 21  2  0  0  0  0 
 16 21  1  0  0  0  0 
 12 21  1  0  0  0  0 
 20 22  1  0  0  0  0 
 18 23  1  0  0  0  0 
 14 24  1  6  0  0  0 
 24 25  2  0  0  0  0 
 25 26  1  0  0  0  0 
 26 27  2  0  0  0  0 
 27 28  1  0  0  0  0 
 28 29  2  0  0  0  0 
 24 29  1  0  0  0  0 
 27 30  1  0  0  0  0 
 13  1  1  6  0  0  0 
  7  8  1  1  0  0  0 
  2 31  1  6  0  0  0 
M  END
>  <MOLREGNO>
503738

>  <CHEMBLID>
CHEMBL517484

>  <SYNONYMS>
Engeletin

>  <MAX_PHASE>
0

>  <MOLWEIGHT>
420.41

>  <ALOGP>
1.41

>  <PSA>
149.07

>  <HBA>
9

>  <HBD>
6

>  <RO5>
1

>  <RTB>
3

>  <RO3>
N

>  <ACD_MOST_APKA>
9.6

>  <ACD_MOST_BPKA>


>  <ACD_LOGP>
1.42

>  <ACD_LOGD>
1.42

>  <AROMATIC_RINGS>
2

>  <HEAVY_ATOMS>
30

>  <QED_WEIGHTED>
.43

>  <HBA_LIPINSKI>
9

>  <HBD_LIPINSKI>
6

>  <NUM_LIPINSKI_RO5_VIOLATIONS>
1

>  <MW_MONOISOTOPIC>
420.142

>  <MOLECULAR_SPECIES>
NEUTRAL

>  <FULL_MOLFORMULA>
C21H24O9

$$$$

  SciTegic01161211212D

 40 45  0  0  0  0            999 V2000
    6.0292   -6.8625    0.0000 C   0  0
    6.0292   -7.6917    0.0000 C   0  0
    5.3167   -6.4542    0.0000 C   0  0
    6.7417   -6.4500    0.0000 O   0  0
    2.4750   -3.1375    0.0000 C   0  0
    6.7417   -8.1042    0.0000 C   0  0
    2.4542   -3.9667    0.0000 C   0  0
    5.3125   -5.6292    0.0000 C   0  0
    7.4625   -6.8667    0.0000 C   0  0
    3.8875   -3.9875    0.0000 C   0  0
    7.4542   -7.6917    0.0000 C   0  0
    3.1625   -4.3917    0.0000 C   0  0
    3.2000   -2.7417    0.0000 C   0  0
    3.9000   -3.1667    0.0000 O   0  0
    5.3167   -8.1042    0.0000 C   0  0
    4.6042   -6.8667    0.0000 C   0  0
    1.7667   -2.7125    0.0000 C   0  0
    4.6042   -7.6917    0.0000 C   0  0
    4.6000   -5.2250    0.0000 C   0  0
    4.6000   -4.4000    0.0000 C   0  0
    3.2167   -1.9125    0.0000 C   0  0
    1.7792   -1.8875    0.0000 C   0  0
    8.1750   -6.4542    0.0000 C   0  0
    6.0292   -5.2167    0.0000 C   0  0
    2.5042   -1.4875    0.0000 C   0  0
    6.7375   -8.9292    0.0000 O   0  0
    1.7292   -4.3625    0.0000 O   0  0
    5.3167   -3.9875    0.0000 C   0  0
    6.0292   -4.4000    0.0000 C   0  0
    8.1792   -5.6375    0.0000 C   0  0
    8.8917   -6.8750    0.0000 C   0  0
    5.3167   -8.9292    0.0000 O   0  0
    3.8875   -6.4542    0.0000 O   0  0
    1.0417   -3.1125    0.0000 O   0  0
    9.6125   -5.6417    0.0000 C   0  0
    9.6042   -6.4667    0.0000 C   0  0
    8.9000   -5.2292    0.0000 C   0  0
    6.7417   -5.6292    0.0000 O   0  0
    2.5167   -0.6542    0.0000 O   0  0
   10.3292   -5.2375    0.0000 O   0  0
  2  1  1  0
  3  1  2  0
  4  1  1  0
  5 13  2  0
  6  2  1  0
  7 12  1  0
  8  3  1  0
  9  4  1  0
 10 20  1  0
 11  9  2  0
 12 10  2  0
 13 14  1  0
 14 10  1  0
 15  2  2  0
 16  3  1  0
 17  5  1  0
 18 16  2  0
 19  8  1  0
 20 19  2  0
 21 13  1  0
 22 25  1  0
 23  9  1  0
 24  8  2  0
 25 21  2  0
 26  6  2  0
 27  7  2  0
 28 29  2  0
 29 24  1  0
 30 23  1  0
 31 23  2  0
 32 15  1  0
 33 16  1  0
 34 17  1  0
 35 36  2  0
 36 31  1  0
 37 30  2  0
 38 24  1  0
 39 25  1  0
 40 35  1  0
  6 11  1  0
 15 18  1  0
 37 35  1  0
 20 28  1  0
  5  7  1  0
 22 17  2  0
M  END
>  <MOLREGNO>
102688

>  <CHEMBLID>
CHEMBL63354

>  <SYNONYMS>
Amentoflavone

>  <MAX_PHASE>
0

>  <MOLWEIGHT>
538.46

>  <ALOGP>
4.51

>  <PSA>
173.98

>  <HBA>
10

>  <HBD>
6

>  <RO5>
2

>  <RTB>
3

>  <RO3>
N

>  <ACD_MOST_APKA>
6.01

>  <ACD_MOST_BPKA>


>  <ACD_LOGP>
3.49

>  <ACD_LOGD>
.21

>  <AROMATIC_RINGS>
4

>  <HEAVY_ATOMS>
40

>  <QED_WEIGHTED>
.22

>  <HBA_LIPINSKI>
10

>  <HBD_LIPINSKI>
6

>  <NUM_LIPINSKI_RO5_VIOLATIONS>
1

>  <MW_MONOISOTOPIC>
538.09

>  <MOLECULAR_SPECIES>
ACID

>  <FULL_MOLFORMULA>
C30H18O10

$$$$

  SciTegic12231509382D

 32 34  0  0  0  0            999 V2000
    9.1260  -16.1529    0.0000 C   0  0
    9.9460  -16.1498    0.0000 C   0  0
    8.6147  -16.8015    0.0000 C   0  0
    8.8049  -17.6042    0.0000 C   0  0
    9.5496  -17.9553    0.0000 C   0  0
   10.4681  -16.7905    0.0000 C   0  0  1  0  0  0
   10.2917  -17.5947    0.0000 C   0  0  1  0  0  0
   11.0039  -18.0131    0.0000 C   0  0  1  0  0  0
   11.6183  -17.4643    0.0000 C   0  0
   11.2877  -16.7116    0.0000 C   0  0
   11.0525  -16.2052    0.0000 C   0  0
   11.8486  -16.4119    0.0000 O   0  0
   10.8343  -15.4068    0.0000 O   0  0
   11.7953  -17.7933    0.0000 C   0  0  2  0  0  0
   12.4971  -18.2248    0.0000 C   0  0
   13.2243  -17.8326    0.0000 C   0  0
   13.9263  -18.2642    0.0000 C   0  0
   14.6492  -17.8725    0.0000 C   0  0
   15.3553  -18.3035    0.0000 C   0  0
   14.6746  -17.0487    0.0000 C   0  0
   15.3307  -19.1218    0.0000 O   0  0
   16.0791  -17.9064    0.0000 O   0  0
   12.6045  -17.2648    0.0000 C   0  0
    7.7893  -16.6191    0.0000 C   0  0
    7.5341  -15.8189    0.0000 O   0  0
    7.2182  -17.2485    0.0000 O   0  0
   10.2051  -18.4789    0.0000 O   0  0
    8.1031  -15.1939    0.0000 C   0  0
   10.6515  -19.1214    0.0000 C   0  0
   10.3792  -19.7876    0.0000 O   0  0
   11.5294  -19.0686    0.0000 C   0  0
   10.9544  -17.0856    0.0000 H   0  0
 14 12  1  0
  4  5  1  0
 14 15  1  0
  6  7  1  0
 15 16  2  0
 16 17  1  0
  1  2  1  0
 17 18  2  0
  2  6  1  0
 18 19  1  0
 18 20  1  0
  1  3  2  0
  7  8  1  0
 19 21  1  0
 19 22  2  0
  8  9  1  0
 14 23  1  1
  9 10  1  0
  3 24  1  0
 10  6  1  0
 24 25  1  0
 24 26  2  0
  6 11  1  1
  7 27  1  6
  3  4  1  0
 25 28  1  0
 11 12  1  0
 27 29  1  0
 11 13  2  0
 29 30  2  0
 29 31  1  0
  7  5  1  0
  8 32  1  6
  8 14  1  0
M  END
>  <MOLREGNO>
365541

>  <CHEMBLID>
CHEMBL218534

>  <SYNONYMS>
PSEUDOLARIC ACID B | POTASSIUM PSEUDOLARATE B | SODIUM PSEUDOLARATE B

>  <MAX_PHASE>
0

>  <MOLWEIGHT>
432.46

>  <ALOGP>
2.79

>  <PSA>
116.2

>  <HBA>
8

>  <HBD>
1

>  <RO5>
0

>  <RTB>
7

>  <RO3>
N

>  <ACD_MOST_APKA>
4.52

>  <ACD_MOST_BPKA>


>  <ACD_LOGP>
2.36

>  <ACD_LOGD>
-.47

>  <AROMATIC_RINGS>
0

>  <HEAVY_ATOMS>
31

>  <QED_WEIGHTED>
.37

>  <HBA_LIPINSKI>
8

>  <HBD_LIPINSKI>
1

>  <NUM_LIPINSKI_RO5_VIOLATIONS>
0

>  <MW_MONOISOTOPIC>
432.1784

>  <MOLECULAR_SPECIES>
ACID

>  <FULL_MOLFORMULA>
C23H28O8

$$$$

  CDK    9/16/09,9:20

 11 10  0  0  0  0  0  0  0  0999 V2000
    1.8334   -0.8479    0.0000 C   0  0  0  0  0  0  0  0  0  0  0  0
    2.5479   -0.4354    0.0000 C   0  0  0  0  0  0  0  0  0  0  0  0
    3.2542   -0.0138    0.0000 C   0  0  0  0  0  0  0  0  0  0  0  0
    2.9656   -1.1469    0.0000 O   0  0  0  0  0  0  0  0  0  0  0  0
    2.1322    0.2772    0.0000 C   0  0  0  0  0  0  0  0  0  0  0  0
    1.1188   -0.4354    0.0000 C   0  0  0  0  0  0  0  0  0  0  0  0
    3.9746   -0.4158    0.0000 C   0  0  0  0  0  0  0  0  0  0  0  0
    4.6830    0.0070    0.0000 C   0  0  0  0  0  0  0  0  0  0  0  0
    5.4035   -0.3950    0.0000 C   0  0  0  0  0  0  0  0  0  0  0  0
    6.1118    0.0279    0.0000 C   0  0  0  0  0  0  0  0  0  0  0  0
    5.4155   -1.2199    0.0000 C   0  0  0  0  0  0  0  0  0  0  0  0
  1  6  2  0  0  0  0 
  1  2  1  0  0  0  0 
  3  7  1  0  0  0  0 
  2  4  1  0  0  0  0 
  7  8  1  0  0  0  0 
  8  9  2  0  0  0  0 
  2  5  1  0  0  0  0 
  9 10  1  0  0  0  0 
  2  3  1  0  0  0  0 
  9 11  1  0  0  0  0 
M  END
>  <MOLREGNO>
33135

>  <CHEMBLID>
CHEMBL25306

>  <SYNONYMS>
Linalool

>  <MAX_PHASE>
0

>  <MOLWEIGHT>
154.25

>  <ALOGP>
2.74

>  <PSA>
20.23

>  <HBA>
1

>  <HBD>
1

>  <RO5>
0

>  <RTB>
4

>  <RO3>
N

>  <ACD_MOST_APKA>


>  <ACD_MOST_BPKA>


>  <ACD_LOGP>
2.8

>  <ACD_LOGD>
2.8

>  <AROMATIC_RINGS>
0

>  <HEAVY_ATOMS>
11

>  <QED_WEIGHTED>
.62

>  <HBA_LIPINSKI>
1

>  <HBD_LIPINSKI>
1

>  <NUM_LIPINSKI_RO5_VIOLATIONS>
0

>  <MW_MONOISOTOPIC>
154.1358

>  <MOLECULAR_SPECIES>
NEUTRAL

>  <FULL_MOLFORMULA>
C10H18O

$$$$

  SciTegic05091115532D

 39 46  0  0  0  0            999 V2000
   -3.0601    5.3024    0.0000 C   0  0
   -3.7746    4.8899    0.0000 C   0  0
   -3.7746    4.0649    0.0000 C   0  0
   -3.0601    3.6524    0.0000 C   0  0
   -2.3456    4.0649    0.0000 C   0  0
   -2.3456    4.8899    0.0000 C   0  0
   -1.6311    5.3024    0.0000 C   0  0
   -0.9166    4.8899    0.0000 C   0  0
   -0.9166    4.0649    0.0000 C   0  0
   -1.6311    3.6524    0.0000 C   0  0
   -0.2021    5.3024    0.0000 C   0  0
    0.5123    4.8900    0.0000 C   0  0
    0.5123    4.0650    0.0000 C   0  0
   -0.2021    3.6524    0.0000 C   0  0
   -3.0601    2.8274    0.0000 C   0  0
   -1.6311    2.8274    0.0000 C   0  0
   -0.2021    2.8274    0.0000 C   0  0
   -3.7745    2.4149    0.0000 C   0  0
   -3.7745    1.5899    0.0000 C   0  0
   -3.0601    1.1773    0.0000 C   0  0
   -2.3456    1.5899    0.0000 C   0  0
   -2.3456    2.4149    0.0000 C   0  0
   -0.9166    2.4149    0.0000 C   0  0
   -0.9166    1.5899    0.0000 C   0  0
   -0.2021    1.1774    0.0000 C   0  0
    0.5124    1.5899    0.0000 C   0  0
    0.5124    2.4149    0.0000 C   0  0
   -1.6310    1.1774    0.0000 C   0  0
   -3.0601    0.3523    0.0000 O   0  0
   -1.6309    0.3524    0.0000 O   0  0
   -0.2021    0.3524    0.0000 O   0  0
    1.2268    2.8275    0.0000 C   0  0
   -4.4890    2.8274    0.0000 O   0  0
   -4.4890    3.6524    0.0000 O   0  0
   -3.0601    6.1274    0.0000 O   0  0
   -1.6311    6.1274    0.0000 O   0  0
   -0.2022    6.1274    0.0000 O   0  0
    1.2268    3.6525    0.0000 C   0  0
    1.9413    4.0650    0.0000 O   0  0
  1  2  2  0
  1  6  1  0
  2  3  1  0
  3  4  2  0
  4  5  1  0
 10  5  1  0
  5  6  2  0
  6  7  1  0
  7  8  1  0
  9 10  1  0
  8 11  1  0
  9  8  2  0
 14  9  1  0
 11 12  2  0
 12 13  1  0
 13 14  2  0
  4 15  1  0
 10 16  2  0
 14 17  1  0
 15 18  2  0
 22 15  1  0
 18 19  1  0
 19 20  2  0
 20 21  1  0
 17 23  1  0
 27 17  2  0
 24 25  1  0
 25 26  2  0
 26 27  1  0
 16 22  1  0
 23 16  1  0
 22 21  2  0
 21 28  1  0
 24 23  2  0
 28 24  1  0
 20 29  1  0
 28 30  2  0
 25 31  1  0
 27 32  1  0
 18 33  1  0
  3 34  1  0
  1 35  1  0
  7 36  2  0
 11 37  1  0
 13 38  1  0
 38 39  1  0
M  END
>  <MOLREGNO>
1037686

>  <CHEMBLID>
CHEMBL1614664

>  <SYNONYMS>
Pseudohypericin

>  <MAX_PHASE>
0

>  <MOLWEIGHT>
520.44

>  <ALOGP>
3.95

>  <PSA>
175.75

>  <HBA>
9

>  <HBD>
7

>  <RO5>
2

>  <RTB>
1

>  <RO3>
N

>  <ACD_MOST_APKA>
7.16

>  <ACD_MOST_BPKA>


>  <ACD_LOGP>
9.29

>  <ACD_LOGD>
8.44

>  <AROMATIC_RINGS>
6

>  <HEAVY_ATOMS>
39

>  <QED_WEIGHTED>
.16

>  <HBA_LIPINSKI>
9

>  <HBD_LIPINSKI>
7

>  <NUM_LIPINSKI_RO5_VIOLATIONS>
1

>  <MW_MONOISOTOPIC>
520.0794

>  <MOLECULAR_SPECIES>
NEUTRAL

>  <FULL_MOLFORMULA>
C30H16O9

$$$$

  CDK    9/16/09,9:20

 49 54  0  0  0  0  0  0  0  0999 V2000
    2.8039  -12.9649    0.0000 O   0  0  0  0  0  0  0  0  0  0  0  0
    2.0748  -10.0740    0.0000 O   0  0  0  0  0  0  0  0  0  0  0  0
    2.7905  -10.4835    0.0000 C   0  0  0  0  0  0  0  0  0  0  0  0
    3.5052  -10.0664    0.0000 C   0  0  0  0  0  0  0  0  0  0  0  0
    3.5042   -9.2397    0.0000 O   0  0  0  0  0  0  0  0  0  0  0  0
    4.2266  -10.4774    0.0000 C   0  0  0  0  0  0  0  0  0  0  0  0
    4.9414  -10.0602    0.0000 O   0  0  0  0  0  0  0  0  0  0  0  0
    4.2297  -11.3077    0.0000 C   0  0  0  0  0  0  0  0  0  0  0  0
    4.9490  -11.7151    0.0000 O   0  0  0  0  0  0  0  0  0  0  0  0
    3.5150  -11.7249    0.0000 C   0  0  0  0  0  0  0  0  0  0  0  0
    2.7972  -11.3117    0.0000 O   0  0  0  0  0  0  0  0  0  0  0  0
    3.5196  -12.5495    0.0000 C   0  0  0  0  0  0  0  0  0  0  0  0
   -4.3577  -11.2810    0.0000 O   0  0  0  0  0  0  0  0  0  0  0  0
   -3.6387  -10.0388    0.0000 C   0  0  0  0  0  0  0  0  0  0  0  0
   -3.6387  -10.8664    0.0000 C   0  0  0  0  0  0  0  0  0  0  0  0
   -2.9239  -11.2739    0.0000 C   0  0  0  0  0  0  0  0  0  0  0  0
   -2.9239   -9.6188    0.0000 C   0  0  0  0  0  0  0  0  0  0  0  0
   -2.2133  -10.0388    0.0000 C   0  0  0  0  0  0  0  0  0  0  0  0
   -2.2168  -10.8664    0.0000 C   0  0  0  0  0  0  0  0  0  0  0  0
   -1.5053  -11.2788    0.0000 C   0  0  0  0  0  0  0  0  0  0  0  0
   -0.7857  -10.8724    0.0000 C   0  0  0  0  0  0  0  0  0  0  0  0
   -1.4983   -9.6237    0.0000 C   0  0  0  0  0  0  0  0  0  0  0  0
   -0.7861  -10.0474    0.0000 C   0  0  0  0  0  0  0  0  0  0  0  0
   -0.7692   -8.3961    0.0000 C   0  0  0  0  0  0  0  0  0  0  0  0
   -1.4930   -8.7988    0.0000 C   0  0  0  0  0  0  0  0  0  0  0  0
   -0.0570   -8.8156    0.0000 C   0  0  0  0  0  0  0  0  0  0  0  0
   -0.0709   -9.6394    0.0000 C   0  0  0  0  0  0  0  0  0  0  0  0
    0.6324  -10.0630    0.0000 C   0  0  0  0  0  0  0  0  0  0  0  0
    1.3538   -9.6633    0.0000 C   0  0  0  0  0  0  0  0  0  0  0  0
    0.6600   -8.4154    0.0000 C   0  0  0  0  0  0  0  0  0  0  0  0
    1.3634   -8.8415    0.0000 C   0  0  0  0  0  0  0  0  0  0  0  0
    2.0821   -8.4511    0.0000 C   0  0  0  0  0  0  0  0  0  0  0  0
    2.1037   -7.6291    0.0000 C   0  0  0  0  0  0  0  0  0  0  0  0
    1.4004   -7.1989    0.0000 C   0  0  0  0  0  0  0  0  0  0  0  0
    0.6754   -7.5949    0.0000 C   0  0  0  0  0  0  0  0  0  0  0  0
   -3.3477  -11.9892    0.0000 C   0  0  0  0  0  0  0  0  0  0  0  0
   -2.7155  -12.0724    0.0000 C   0  0  0  0  0  0  0  0  0  0  0  0
   -2.2207   -9.2113    0.0000 C   0  0  0  0  0  0  0  0  0  0  0  0
   -0.7943   -9.2196    0.0000 C   0  0  0  0  0  0  0  0  0  0  0  0
   -0.0790  -10.4630    0.0000 C   0  0  0  0  0  0  0  0  0  0  0  0
    0.6529   -9.2404    0.0000 H   0  0  0  0  0  0  0  0  0  0  0  0
    2.0752   -9.2570    0.0000 C   0  0  0  0  0  0  0  0  0  0  0  0
    2.7917   -8.8444    0.0000 O   0  0  0  0  0  0  0  0  0  0  0  0
   -1.5054  -10.4505    0.0000 H   0  0  0  0  0  0  0  0  0  0  0  0
   -2.0044  -11.6607    0.0000 H   0  0  0  0  0  0  0  0  0  0  0  0
    1.4205   -6.3757    0.0000 C   0  0  0  0  0  0  0  0  0  0  0  0
   -0.0287   -7.1681    0.0000 C   0  0  0  0  0  0  0  0  0  0  0  0
    0.6695   -6.7702    0.0000 O   0  0  0  0  0  0  0  0  0  0  0  0
   -4.1710  -11.9801    0.0000 O   0  0  0  0  0  0  0  0  0  0  0  0
 22 25  1  0  0  0  0 
 23 27  1  0  0  0  0 
 26 24  2  0  0  0  0 
 24 25  1  0  0  0  0 
 26 27  1  0  0  0  0 
 14 15  1  0  0  0  0 
  3  2  1  1  0  0  0 
  3  4  1  0  0  0  0 
 26 30  1  0  0  0  0 
 27 28  1  0  0  0  0 
 28 29  1  0  0  0  0 
 29 31  1  0  0  0  0 
 30 31  1  0  0  0  0 
  4  5  1  6  0  0  0 
  4  6  1  0  0  0  0 
 14 17  1  0  0  0  0 
 15 16  1  0  0  0  0 
 16 19  1  0  0  0  0 
 18 17  1  0  0  0  0 
 30 35  1  0  0  0  0 
 31 32  1  0  0  0  0 
 32 33  1  0  0  0  0 
 33 34  1  0  0  0  0 
 34 35  1  0  0  0  0 
 15 13  1  1  0  0  0 
 18 19  1  0  0  0  0 
 16 36  1  6  0  0  0 
  6  7  1  1  0  0  0 
 16 37  1  0  0  0  0 
  6  8  1  0  0  0  0 
 18 38  1  1  0  0  0 
  8  9  1  6  0  0  0 
 23 39  1  1  0  0  0 
  8 10  1  0  0  0  0 
 27 40  1  6  0  0  0 
 18 22  1  0  0  0  0 
 30 41  1  1  0  0  0 
 19 20  1  0  0  0  0 
 31 42  1  1  0  0  0 
 20 21  1  0  0  0  0 
 42  2  1  0  0  0  0 
 42 43  2  0  0  0  0 
 21 23  1  0  0  0  0 
 22 44  1  6  0  0  0 
 22 23  1  0  0  0  0 
 19 45  1  6  0  0  0 
 10 11  1  0  0  0  0 
 34 46  1  6  0  0  0 
 10 12  1  1  0  0  0 
 35 47  1  1  0  0  0 
 12  1  1  0  0  0  0 
 35 48  1  0  0  0  0 
  3 11  1  0  0  0  0 
 36 49  1  0  0  0  0 
M  END
>  <MOLREGNO>
483603

>  <CHEMBLID>
CHEMBL508539

>  <SYNONYMS>
Pedunculoside

>  <MAX_PHASE>
0

>  <MOLWEIGHT>
650.84

>  <ALOGP>
2.32

>  <PSA>
177.14

>  <HBA>
10

>  <HBD>
7

>  <RO5>
2

>  <RTB>
5

>  <RO3>
N

>  <ACD_MOST_APKA>
12.53

>  <ACD_MOST_BPKA>


>  <ACD_LOGP>
3.94

>  <ACD_LOGD>
3.94

>  <AROMATIC_RINGS>
0

>  <HEAVY_ATOMS>
46

>  <QED_WEIGHTED>
.17

>  <HBA_LIPINSKI>
10

>  <HBD_LIPINSKI>
7

>  <NUM_LIPINSKI_RO5_VIOLATIONS>
1

>  <MW_MONOISOTOPIC>
650.403

>  <MOLECULAR_SPECIES>
NEUTRAL

>  <FULL_MOLFORMULA>
C36H58O10

$$$$

  SciTegic12231509382D

 26 29  0  0  0  0            999 V2000
    1.5474  -23.0529    0.0000 C   0  0
    2.2500  -23.4802    0.0000 C   0  0  2  0  0  0
    2.9729  -23.0864    0.0000 C   0  0
    1.5612  -22.2253    0.0000 O   0  0
    0.8213  -23.4481    0.0000 O   0  0
    2.2330  -24.3050    0.0000 C   0  0
    1.5101  -24.6988    0.0000 C   0  0
    1.4931  -25.5277    0.0000 C   0  0
    2.1957  -25.9550    0.0000 C   0  0
    2.9218  -25.5598    0.0000 C   0  0
    2.9356  -24.7323    0.0000 C   0  0
    0.1147  -23.0209    0.0000 C   0  0  1  0  0  0
   -0.9735  -22.2002    0.0000 C   0  0  2  0  0  0
   -0.4118  -22.5845    0.0000 C   0  0
   -1.4053  -22.5845    0.0000 C   0  0  2  0  0  0
   -1.5470  -21.7567    0.0000 N   0  0
   -0.0249  -22.1871    0.0000 C   0  0
   -2.1281  -22.1702    0.0000 H   0  0
   -1.3016  -22.9289    0.0000 C   0  0  1  0  0  0
   -1.9322  -23.3121    0.0000 C   0  0  1  0  0  0
   -1.2806  -23.6696    0.0000 O   0  0
   -2.3553  -24.0293    0.0000 H   0  0
   -0.5856  -23.3408    0.0000 H   0  0
   -0.5664  -21.4797    0.0000 H   0  0
   -1.9738  -21.0433    0.0000 C   0  0
    3.6794  -23.5136    0.0000 O   0  0
 10 11  1  0
  6 11  2  0
  2  6  1  0
 12  5  1  1
 12 14  1  0
 14 15  1  0
 15 16  1  0
 16 13  1  0
 13 17  1  0
 17 12  1  0
 15 20  1  0
 13 19  1  0
 15 18  1  6
 20 19  1  0
 21 20  1  0
 19 21  1  0
 20 22  1  6
 19 23  1  1
 13 24  1  1
 16 25  1  0
  1  2  1  0
  2  3  1  6
  1  4  2  0
  1  5  1  0
  6  7  1  0
  3 26  1  0
  7  8  2  0
  8  9  1  0
  9 10  2  0
M  END
>  <MOLREGNO>
661796

>  <CHEMBLID>
CHEMBL1187846

>  <SYNONYMS>
Isoptpo Hyoscine | HYOSCINE | SCOPOLAMINE HYDROBROMIDE | ISOPTO HYOSCINE | (-)-Scopolamine Methyl Nitrate | (-)-Scopolamine Hydrobromide | TRANSDERM-SCOP | (-)-Scopolamine Hcl | HYOSCINE HYDROBROMIDE | SCOPOLAMINE | Scopolamine Hydrobromide | Hyoscine Hydrobromide

>  <MAX_PHASE>
4

>  <MOLWEIGHT>
303.35

>  <ALOGP>
.82

>  <PSA>
62.3

>  <HBA>
5

>  <HBD>
1

>  <RO5>
0

>  <RTB>
5

>  <RO3>
N

>  <ACD_MOST_APKA>


>  <ACD_MOST_BPKA>
5.4

>  <ACD_LOGP>
4.54

>  <ACD_LOGD>
4.53

>  <AROMATIC_RINGS>
1

>  <HEAVY_ATOMS>
22

>  <QED_WEIGHTED>
.82

>  <HBA_LIPINSKI>
5

>  <HBD_LIPINSKI>
1

>  <NUM_LIPINSKI_RO5_VIOLATIONS>
0

>  <MW_MONOISOTOPIC>
303.1471

>  <MOLECULAR_SPECIES>
NEUTRAL

>  <FULL_MOLFORMULA>
C17H21NO4

$$$$

  CDK    9/16/09,9:19

 56 60  0  0  0  0  0  0  0  0999 V2000
    9.8781  -23.9612    0.0000 C   0  0  0  0  0  0  0  0  0  0  0  0
    9.8769  -24.7886    0.0000 C   0  0  0  0  0  0  0  0  0  0  0  0
   10.5917  -25.2014    0.0000 C   0  0  0  0  0  0  0  0  0  0  0  0
   11.3082  -24.7881    0.0000 C   0  0  0  0  0  0  0  0  0  0  0  0
   11.3053  -23.9576    0.0000 C   0  0  0  0  0  0  0  0  0  0  0  0
   10.5899  -23.5484    0.0000 C   0  0  0  0  0  0  0  0  0  0  0  0
    9.1621  -25.2005    0.0000 O   0  0  0  0  0  0  0  0  0  0  0  0
   12.0182  -23.5424    0.0000 C   0  0  0  0  0  0  0  0  0  0  0  0
   12.7342  -23.9522    0.0000 C   0  0  0  0  0  0  0  0  0  0  0  0
   13.4472  -23.5370    0.0000 C   0  0  0  0  0  0  0  0  0  0  0  0
   13.4446  -22.7119    0.0000 O   0  0  0  0  0  0  0  0  0  0  0  0
   14.1593  -21.4813    0.0000 O   0  0  0  0  0  0  0  0  0  0  0  0
   14.1627  -22.3063    0.0000 C   0  0  0  0  0  0  0  0  0  0  0  0
   14.8789  -22.7158    0.0000 C   0  0  0  0  0  0  0  0  0  0  0  0
   14.8761  -23.5382    0.0000 C   0  0  0  0  0  0  0  0  0  0  0  0
   15.5882  -23.9476    0.0000 C   0  0  0  0  0  0  0  0  0  0  0  0
   16.3034  -23.5356    0.0000 C   0  0  0  0  0  0  0  0  0  0  0  0
   16.3019  -22.7096    0.0000 C   0  0  0  0  0  0  0  0  0  0  0  0
   15.5852  -22.2957    0.0000 O   0  0  0  0  0  0  0  0  0  0  0  0
   17.0160  -22.2966    0.0000 O   0  0  0  0  0  0  0  0  0  0  0  0
   17.7308  -22.7085    0.0000 C   0  0  0  0  0  0  0  0  0  0  0  0
   18.4450  -22.2955    0.0000 C   0  0  0  0  0  0  0  0  0  0  0  0
   19.1598  -22.7074    0.0000 C   0  0  0  0  0  0  0  0  0  0  0  0
   19.1562  -23.5303    0.0000 C   0  0  0  0  0  0  0  0  0  0  0  0
   19.8701  -23.9421    0.0000 C   0  0  0  0  0  0  0  0  0  0  0  0
   20.5853  -23.5290    0.0000 C   0  0  0  0  0  0  0  0  0  0  0  0
   20.5820  -22.6997    0.0000 C   0  0  0  0  0  0  0  0  0  0  0  0
   19.8675  -22.2916    0.0000 C   0  0  0  0  0  0  0  0  0  0  0  0
   21.2947  -22.2842    0.0000 O   0  0  0  0  0  0  0  0  0  0  0  0
   21.3006  -23.9400    0.0000 O   0  0  0  0  0  0  0  0  0  0  0  0
   17.0180  -23.9478    0.0000 O   0  0  0  0  0  0  0  0  0  0  0  0
   14.1613  -23.9501    0.0000 O   0  0  0  0  0  0  0  0  0  0  0  0
   15.5885  -24.7726    0.0000 O   0  0  0  0  0  0  0  0  0  0  0  0
    9.1635  -23.5489    0.0000 O   0  0  0  0  0  0  0  0  0  0  0  0
   14.8742  -25.1854    0.0000 C   0  0  0  0  0  0  0  0  0  0  0  0
   14.1635  -24.7689    0.0000 O   0  0  0  0  0  0  0  0  0  0  0  0
   13.4513  -25.1782    0.0000 C   0  0  0  0  0  0  0  0  0  0  0  0
   13.4474  -26.0035    0.0000 C   0  0  0  0  0  0  0  0  0  0  0  0
   14.1619  -26.4179    0.0000 C   0  0  0  0  0  0  0  0  0  0  0  0
   14.8803  -26.0070    0.0000 C   0  0  0  0  0  0  0  0  0  0  0  0
   12.7383  -24.7632    0.0000 C   0  0  0  0  0  0  0  0  0  0  0  0
   14.8667  -24.3583    0.0000 H   0  0  0  0  0  0  0  0  0  0  0  0
   12.7316  -26.4136    0.0000 O   0  0  0  0  0  0  0  0  0  0  0  0
   14.1594  -27.2429    0.0000 O   0  0  0  0  0  0  0  0  0  0  0  0
   15.5955  -26.4183    0.0000 O   0  0  0  0  0  0  0  0  0  0  0  0
   13.4431  -21.0718    0.0000 C   0  0  0  0  0  0  0  0  0  0  0  0
   13.4431  -20.2470    0.0000 O   0  0  0  0  0  0  0  0  0  0  0  0
   12.7311  -19.8375    0.0000 C   0  0  0  0  0  0  0  0  0  0  0  0
   12.0159  -20.2495    0.0000 C   0  0  0  0  0  0  0  0  0  0  0  0
   12.0174  -21.0755    0.0000 C   0  0  0  0  0  0  0  0  0  0  0  0
   12.7340  -21.4895    0.0000 C   0  0  0  0  0  0  0  0  0  0  0  0
   14.1542  -20.6542    0.0000 H   0  0  0  0  0  0  0  0  0  0  0  0
   12.7307  -19.0125    0.0000 C   0  0  0  0  0  0  0  0  0  0  0  0
   11.3012  -19.8373    0.0000 O   0  0  0  0  0  0  0  0  0  0  0  0
   11.3032  -21.4885    0.0000 O   0  0  0  0  0  0  0  0  0  0  0  0
   12.7375  -22.3144    0.0000 O   0  0  0  0  0  0  0  0  0  0  0  0
 27 28  2  0  0  0  0 
 28 23  1  0  0  0  0 
 14 15  1  0  0  0  0 
 27 29  1  0  0  0  0 
  2  7  1  0  0  0  0 
 26 30  1  0  0  0  0 
  3  4  2  0  0  0  0 
 17 31  1  6  0  0  0 
  5  8  1  0  0  0  0 
 15 32  1  6  0  0  0 
 16 33  1  1  0  0  0 
 32 10  1  0  0  0  0 
  8  9  2  0  0  0  0 
  1 34  1  0  0  0  0 
 14 19  1  0  0  0  0 
 33 35  1  0  0  0  0 
 35 36  1  0  0  0  0 
 15 16  1  0  0  0  0 
 16 17  1  0  0  0  0 
 17 18  1  0  0  0  0 
 18 19  1  0  0  0  0 
  4  5  1  0  0  0  0 
 35 40  1  0  0  0  0 
 36 37  1  0  0  0  0 
 37 38  1  0  0  0  0 
 38 39  1  0  0  0  0 
 39 40  1  0  0  0  0 
 18 20  1  1  0  0  0 
 37 41  1  6  0  0  0 
  9 10  1  0  0  0  0 
 35 42  1  6  0  0  0 
 20 21  1  0  0  0  0 
 38 43  1  1  0  0  0 
  2  3  1  0  0  0  0 
 39 44  1  6  0  0  0 
 21 22  1  0  0  0  0 
 40 45  1  6  0  0  0 
 10 11  2  0  0  0  0 
 12 46  1  0  0  0  0 
 46 47  1  0  0  0  0 
 22 23  1  0  0  0  0 
  5  6  2  0  0  0  0 
 23 24  2  0  0  0  0 
  6  1  1  0  0  0  0 
 24 25  1  0  0  0  0 
 46 51  1  0  0  0  0 
 47 48  1  0  0  0  0 
 48 49  1  0  0  0  0 
 49 50  1  0  0  0  0 
 50 51  1  0  0  0  0 
 12 13  1  0  0  0  0 
 46 52  1  6  0  0  0 
 25 26  2  0  0  0  0 
 48 53  1  6  0  0  0 
  1  2  2  0  0  0  0 
 49 54  1  1  0  0  0 
 26 27  1  0  0  0  0 
 50 55  1  6  0  0  0 
 14 13  1  1  0  0  0 
 51 56  1  6  0  0  0 
M  END
>  <MOLREGNO>
443660

>  <CHEMBLID>
CHEMBL499145

>  <SYNONYMS>
Poliumoside

>  <MAX_PHASE>
0

>  <MOLWEIGHT>
770.73

>  <ALOGP>
-.38

>  <PSA>
304.2

>  <HBA>
19

>  <HBD>
11

>  <RO5>
3

>  <RTB>
13

>  <RO3>
N

>  <ACD_MOST_APKA>
9.31

>  <ACD_MOST_BPKA>


>  <ACD_LOGP>
-.9

>  <ACD_LOGD>
-.9

>  <AROMATIC_RINGS>
2

>  <HEAVY_ATOMS>
54

>  <QED_WEIGHTED>
.07

>  <HBA_LIPINSKI>
19

>  <HBD_LIPINSKI>
11

>  <NUM_LIPINSKI_RO5_VIOLATIONS>
2

>  <MW_MONOISOTOPIC>
770.2633

>  <MOLECULAR_SPECIES>
NEUTRAL

>  <FULL_MOLFORMULA>
C35H46O19

$$$$

  SciTegic11021510542D

 18 17  0  0  0  0            999 V2000
   -4.7249   -0.1604    0.0000 C   0  0
   -5.4394    0.2521    0.0000 O   0  0
   -4.7249   -0.9854    0.0000 O   0  0
   -4.0104    0.2521    0.0000 C   0  0
   -3.2960   -0.1604    0.0000 C   0  0
   -2.5815    0.2521    0.0000 C   0  0
   -1.8670   -0.1604    0.0000 C   0  0
   -1.1526    0.2521    0.0000 C   0  0
   -0.4381   -0.1604    0.0000 C   0  0
    0.2764    0.2521    0.0000 C   0  0
    0.9909   -0.1604    0.0000 C   0  0
    1.7053    0.2521    0.0000 C   0  0
    2.4198   -0.1604    0.0000 C   0  0
    3.1343    0.2521    0.0000 C   0  0
    3.8487   -0.1604    0.0000 C   0  0
    4.5632    0.2521    0.0000 C   0  0
    5.2777   -0.1604    0.0000 C   0  0
    5.9922    0.2521    0.0000 C   0  0
  1  2  1  0
  1  3  2  0
  1  4  1  0
  4  5  1  0
  5  6  1  0
  6  7  1  0
  7  8  1  0
  8  9  1  0
  9 10  1  0
 10 11  1  0
 11 12  1  0
 12 13  1  0
 13 14  1  0
 14 15  1  0
 15 16  1  0
 16 17  1  0
 17 18  1  0
M  END
>  <MOLREGNO>
133028

>  <CHEMBLID>
CHEMBL82293

>  <SYNONYMS>
PALMITIC ACID

>  <MAX_PHASE>
0

>  <MOLWEIGHT>
256.42

>  <ALOGP>
6.39

>  <PSA>
37.29

>  <HBA>
2

>  <HBD>
1

>  <RO5>
1

>  <RTB>
14

>  <RO3>
N

>  <ACD_MOST_APKA>
4.78

>  <ACD_MOST_BPKA>


>  <ACD_LOGP>
6.81

>  <ACD_LOGD>
4.22

>  <AROMATIC_RINGS>
0

>  <HEAVY_ATOMS>
18

>  <QED_WEIGHTED>
.37

>  <HBA_LIPINSKI>
2

>  <HBD_LIPINSKI>
1

>  <NUM_LIPINSKI_RO5_VIOLATIONS>
1

>  <MW_MONOISOTOPIC>
256.2402

>  <MOLECULAR_SPECIES>
ACID

>  <FULL_MOLFORMULA>
C16H32O2

$$$$

  CDK    9/16/09,9:19

 26 30  0  0  0  0  0  0  0  0999 V2000
   -1.3532   -7.8092    0.0000 C   0  0  0  0  0  0  0  0  0  0  0  0
   -0.6325   -7.3978    0.0000 C   0  0  0  0  0  0  0  0  0  0  0  0
    0.0798   -7.8092    0.0000 N   0  0  0  0  0  0  0  0  0  0  0  0
    0.8005   -7.3978    0.0000 C   0  0  0  0  0  0  0  0  0  0  0  0
   -0.6325   -6.5709    0.0000 C   0  0  0  0  0  0  0  0  0  0  0  0
   -1.3532   -6.1554    0.0000 C   0  0  0  0  0  0  0  0  0  0  0  0
   -2.0614   -7.3978    0.0000 C   0  0  0  0  0  0  0  0  0  0  0  0
   -2.0592   -6.5736    0.0000 C   0  0  0  0  0  0  0  0  0  0  0  0
   -2.7707   -6.1614    0.0000 C   0  0  0  0  0  0  0  0  0  0  0  0
   -2.7710   -7.8081    0.0000 C   0  0  0  0  0  0  0  0  0  0  0  0
    0.0798   -6.1554    0.0000 C   0  0  0  0  0  0  0  0  0  0  0  0
    0.7963   -6.5728    0.0000 C   0  0  0  0  0  0  0  0  0  0  0  0
    1.5139   -6.1610    0.0000 C   0  0  0  0  0  0  0  0  0  0  0  0
    0.0803   -5.3308    0.0000 C   0  0  0  0  0  0  0  0  0  0  0  0
    0.0777   -8.6336    0.0000 C   0  0  0  0  0  0  0  0  0  0  0  0
    0.7949   -4.9167    0.0000 C   0  0  0  0  0  0  0  0  0  0  0  0
    1.5170   -5.3292    0.0000 C   0  0  0  0  0  0  0  0  0  0  0  0
    2.1325   -4.7699    0.0000 O   0  0  0  0  0  0  0  0  0  0  0  0
    1.7908   -4.0116    0.0000 C   0  0  0  0  0  0  0  0  0  0  0  0
    0.9642   -4.1025    0.0000 O   0  0  0  0  0  0  0  0  0  0  0  0
   -3.4831   -7.3996    0.0000 C   0  0  0  0  0  0  0  0  0  0  0  0
   -3.4873   -6.5676    0.0000 C   0  0  0  0  0  0  0  0  0  0  0  0
   -4.2798   -6.3144    0.0000 O   0  0  0  0  0  0  0  0  0  0  0  0
   -4.7656   -6.9900    0.0000 C   0  0  0  0  0  0  0  0  0  0  0  0
   -4.2731   -7.6606    0.0000 O   0  0  0  0  0  0  0  0  0  0  0  0
   -1.3580   -5.3311    0.0000 O   0  0  0  0  0  0  0  0  0  0  0  0
 11 12  2  0  0  0  0 
  7  1  1  0  0  0  0 
 12 13  1  0  0  0  0 
 13 17  2  0  0  0  0 
  6  5  1  0  0  0  0 
 16 14  2  0  0  0  0 
 14 11  1  0  0  0  0 
  1  2  1  0  0  0  0 
  3 15  1  0  0  0  0 
 16 17  1  0  0  0  0 
  3  4  1  0  0  0  0 
  7  8  2  0  0  0  0 
  4 12  1  0  0  0  0 
  8  9  1  0  0  0  0 
 17 18  1  0  0  0  0 
 18 19  1  0  0  0  0 
 19 20  1  0  0  0  0 
 20 16  1  0  0  0  0 
 21 22  1  0  0  0  0 
  9 22  2  0  0  0  0 
 11  5  1  0  0  0  0 
 21 10  2  0  0  0  0 
 10  7  1  0  0  0  0 
  2  3  1  0  0  0  0 
 22 23  1  0  0  0  0 
 23 24  1  0  0  0  0 
 24 25  1  0  0  0  0 
 25 21  1  0  0  0  0 
  6  8  1  0  0  0  0 
  6 26  2  0  0  0  0 
M  END
>  <MOLREGNO>
442547

>  <CHEMBLID>
CHEMBL486179

>  <SYNONYMS>
Protopine

>  <MAX_PHASE>
0

>  <MOLWEIGHT>
353.37

>  <ALOGP>
2.95

>  <PSA>
57.23

>  <HBA>
6

>  <HBD>
0

>  <RO5>
0

>  <RTB>
0

>  <RO3>
N

>  <ACD_MOST_APKA>


>  <ACD_MOST_BPKA>
7.88

>  <ACD_LOGP>
3.15

>  <ACD_LOGD>
2.55

>  <AROMATIC_RINGS>
2

>  <HEAVY_ATOMS>
26

>  <QED_WEIGHTED>
.73

>  <HBA_LIPINSKI>
6

>  <HBD_LIPINSKI>
0

>  <NUM_LIPINSKI_RO5_VIOLATIONS>
0

>  <MW_MONOISOTOPIC>
353.1263

>  <MOLECULAR_SPECIES>
NEUTRAL

>  <FULL_MOLFORMULA>
C20H19NO5

$$$$

  CDK    9/16/09,9:20

 30 33  0  0  0  0  0  0  0  0999 V2000
    8.7039  -17.5944    0.0000 C   0  0  0  0  0  0  0  0  0  0  0  0
    8.7021  -15.9414    0.0000 C   0  0  0  0  0  0  0  0  0  0  0  0
    9.4175  -16.3505    0.0000 C   0  0  0  0  0  0  0  0  0  0  0  0
    9.4163  -17.1836    0.0000 C   0  0  0  0  0  0  0  0  0  0  0  0
   10.1332  -17.5988    0.0000 O   0  0  0  0  0  0  0  0  0  0  0  0
   10.8558  -17.1856    0.0000 C   0  0  0  0  0  0  0  0  0  0  0  0
   10.8570  -16.3526    0.0000 C   0  0  0  0  0  0  0  0  0  0  0  0
   10.1356  -15.9327    0.0000 C   0  0  0  0  0  0  0  0  0  0  0  0
    7.9891  -17.1815    0.0000 C   0  0  0  0  0  0  0  0  0  0  0  0
    7.9903  -16.3572    0.0000 C   0  0  0  0  0  0  0  0  0  0  0  0
    7.2067  -16.1012    0.0000 C   0  0  0  0  0  0  0  0  0  0  0  0
    6.7211  -16.7674    0.0000 C   0  0  0  0  0  0  0  0  0  0  0  0
    7.2047  -17.4350    0.0000 O   0  0  0  0  0  0  0  0  0  0  0  0
   11.5691  -17.6002    0.0000 O   0  0  0  0  0  0  0  0  0  0  0  0
    5.8961  -16.7662    0.0000 C   0  0  0  0  0  0  0  0  0  0  0  0
    5.0708  -16.7625    0.0000 O   0  0  0  0  0  0  0  0  0  0  0  0
    5.8936  -17.5912    0.0000 C   0  0  0  0  0  0  0  0  0  0  0  0
    5.8989  -15.9412    0.0000 C   0  0  0  0  0  0  0  0  0  0  0  0
    4.6616  -16.0462    0.0000 C   0  0  0  0  0  0  0  0  0  0  0  0
    5.0824  -15.3359    0.0000 O   0  0  0  0  0  0  0  0  0  0  0  0
    4.6766  -14.6217    0.0000 C   0  0  0  0  0  0  0  0  0  0  0  0
    3.8513  -14.6137    0.0000 C   0  0  0  0  0  0  0  0  0  0  0  0
    3.4334  -15.3261    0.0000 C   0  0  0  0  0  0  0  0  0  0  0  0
    3.8408  -16.0465    0.0000 C   0  0  0  0  0  0  0  0  0  0  0  0
    2.6084  -15.3195    0.0000 O   0  0  0  0  0  0  0  0  0  0  0  0
    5.0951  -13.9107    0.0000 C   0  0  0  0  0  0  0  0  0  0  0  0
    5.9200  -13.9175    0.0000 O   0  0  0  0  0  0  0  0  0  0  0  0
    3.4252  -16.7592    0.0000 O   0  0  0  0  0  0  0  0  0  0  0  0
    3.4448  -13.8958    0.0000 O   0  0  0  0  0  0  0  0  0  0  0  0
    5.4833  -16.0458    0.0000 H   0  0  0  0  0  0  0  0  0  0  0  0
  6 14  2  0  0  0  0 
  3  8  1  0  0  0  0 
 12 15  1  1  0  0  0 
  4  5  1  0  0  0  0 
 15 16  1  0  0  0  0 
  5  6  1  0  0  0  0 
 15 17  1  0  0  0  0 
  6  7  1  0  0  0  0 
 15 18  1  0  0  0  0 
  7  8  2  0  0  0  0 
 16 19  1  0  0  0  0 
 19 20  1  0  0  0  0 
  9 10  2  0  0  0  0 
  9  1  1  0  0  0  0 
  1  4  2  0  0  0  0 
  3  2  2  0  0  0  0 
 19 24  1  0  0  0  0 
 20 21  1  0  0  0  0 
 21 22  1  0  0  0  0 
 22 23  1  0  0  0  0 
 23 24  1  0  0  0  0 
  2 10  1  0  0  0  0 
 23 25  1  1  0  0  0 
 10 11  1  0  0  0  0 
 21 26  1  1  0  0  0 
 11 12  1  0  0  0  0 
 26 27  1  0  0  0  0 
 12 13  1  0  0  0  0 
 24 28  1  6  0  0  0 
 13  9  1  0  0  0  0 
 22 29  1  6  0  0  0 
  3  4  1  0  0  0  0 
 19 30  1  6  0  0  0 
M  END
>  <MOLREGNO>
446611

>  <CHEMBLID>
CHEMBL459825

>  <SYNONYMS>
Nodakenin

>  <MAX_PHASE>
0

>  <MOLWEIGHT>
408.4

>  <ALOGP>
.28

>  <PSA>
134.91

>  <HBA>
9

>  <HBD>
4

>  <RO5>
0

>  <RTB>
4

>  <RO3>
N

>  <ACD_MOST_APKA>
12.9

>  <ACD_MOST_BPKA>


>  <ACD_LOGP>
-.24

>  <ACD_LOGD>
-.24

>  <AROMATIC_RINGS>
1

>  <HEAVY_ATOMS>
29

>  <QED_WEIGHTED>
.41

>  <HBA_LIPINSKI>
9

>  <HBD_LIPINSKI>
4

>  <NUM_LIPINSKI_RO5_VIOLATIONS>
0

>  <MW_MONOISOTOPIC>
408.142

>  <MOLECULAR_SPECIES>
NEUTRAL

>  <FULL_MOLFORMULA>
C20H24O9

$$$$

  SciTegic11201309402D

 73 81  0  0  0  0            999 V2000
    2.5500   -4.9254    0.0000 O   0  0
    1.6670   -5.1504    0.0000 C   0  0
    2.1753   -3.5927    0.0000 C   0  0  2  0  0  0
    2.9042   -3.1875    0.0000 C   0  0  2  0  0  0
    1.4622   -3.1947    0.0000 C   0  0  1  0  0  0
    2.8930   -2.3913    0.0000 C   0  0  1  0  0  0
    3.6263   -3.6116    0.0000 O   0  0
    1.4560   -2.4032    0.0000 C   0  0  2  0  0  0
    2.1154   -4.6381    0.0000 O   0  0
    2.1626   -2.0070    0.0000 O   0  0
    3.6188   -1.9922    0.0000 O   0  0
    3.6329   -4.4077    0.0000 C   0  0
    0.7423   -2.0187    0.0000 C   0  0
    0.2764   -4.6819    0.0000 C   0  0
    3.6029   -1.1734    0.0000 C   0  0
    4.3530   -4.8044    0.0000 C   0  0
    2.9186   -4.8117    0.0000 O   0  0
    0.1099   -2.5322    0.0000 O   0  0
   -0.5770   -5.1294    0.0000 C   0  0
   -0.0287   -3.8727    0.0000 O   0  0
    2.9049   -0.8056    0.0000 O   0  0
    5.0709   -4.4004    0.0000 C   0  0
   -0.6108   -2.1327    0.0000 C   0  0
   -0.5659   -5.9409    0.0000 C   0  0
   -1.2981   -4.7444    0.0000 C   0  0
    5.7957   -4.7925    0.0000 C   0  0
   -1.3278   -2.5442    0.0000 C   0  0
   -0.6170   -1.3435    0.0000 O   0  0
   -1.2852   -6.3462    0.0000 C   0  0
   -2.0200   -5.1414    0.0000 C   0  0
    5.8022   -5.5925    0.0000 C   0  0
    6.5131   -4.3834    0.0000 O   0  0
   -1.3213   -3.3385    0.0000 C   0  0
   -2.0485   -2.1447    0.0000 C   0  0
   -2.0180   -5.9480    0.0000 C   0  0
   -1.2942   -7.1160    0.0000 O   0  0
   -2.7487   -4.7518    0.0000 O   0  0
    6.5315   -5.9765    0.0000 O   0  0
   -2.0355   -3.7535    0.0000 C   0  0
   -2.7701   -2.5561    0.0000 C   0  0
   -2.7503   -6.3163    0.0000 O   0  0
   -2.7686   -3.3457    0.0000 C   0  0
   -2.0519   -4.4174    0.0000 O   0  0
   -3.4958   -2.1519    0.0000 O   0  0
   -3.4835   -3.7498    0.0000 O   0  0
    5.0838   -5.9991    0.0000 C   0  0
    0.7115   -3.6069    0.0000 O   0  0
    1.6156   -5.9877    0.0000 C   0  0
    0.8596   -6.4121    0.0000 C   0  0
    0.8706   -7.2491    0.0000 C   0  0
    1.6303   -7.6571    0.0000 C   0  0  1  0  0  0
    2.3884   -7.2309    0.0000 C   0  0
    2.3770   -6.3988    0.0000 C   0  0  2  0  0  0
    4.3623   -5.6033    0.0000 C   0  0
    3.1758   -6.7611    0.0000 O   0  0
    3.1557   -7.6732    0.0000 O   0  0
    4.8495   -8.4249    0.0000 O   0  0
    1.6486   -8.5342    0.0000 O   0  0
    0.1057   -7.6762    0.0000 O   0  0
    2.4340   -5.4004    0.0000 H   0  0
    4.2995   -0.7408    0.0000 C   0  0
    5.0252   -1.1336    0.0000 C   0  0
    5.7262   -0.7018    0.0000 C   0  0
    5.7026    0.1229    0.0000 C   0  0
    4.9724    0.5137    0.0000 C   0  0
    4.2744    0.0795    0.0000 C   0  0
    4.9455    1.3373    0.0000 O   0  0
    6.4035    0.5564    0.0000 O   0  0
    6.4513   -1.0933    0.0000 O   0  0
    1.4476   -1.4032    0.0000 H   0  0
    1.4587   -4.1947    0.0000 H   0  0
    3.7686   -2.6846    0.0000 H   0  0
    3.0224   -4.1242    0.0000 H   0  0
 27 34  2  0
 29 35  1  0
 29 36  1  0
 30 37  1  0
 31 38  1  0
 33 39  2  0
 34 40  1  0
 35 41  1  0
 39 42  1  0
 39 43  1  0
 40 44  1  0
 42 45  1  0
  8 10  1  0
 26 31  2  0
 30 35  2  0
 40 42  2  0
 33 25  1  0
  1  2  2  0
  3  4  1  0
  3  5  1  0
  4  6  1  0
  4  7  1  0
 46 54  2  0
  5  8  1  0
  6 10  1  0
  5 47  1  0
 47  2  1  0
  3  9  1  0
  6 11  1  1
  7 12  1  0
  2 48  1  0
  8 13  1  0
  9 14  1  0
 11 15  1  0
 12 16  1  0
 12 17  2  0
 13 18  1  0
 14 19  1  0
 14 20  2  0
 48 49  2  0
 49 50  1  0
 50 51  1  0
 51 52  1  0
 52 53  1  0
 53 48  1  0
 53 54  1  0
 15 21  2  0
 52 55  1  0
 16 54  1  0
 52 56  1  0
 46 57  1  0
 16 22  2  0
 51 57  1  0
 18 23  1  0
 51 58  1  6
 19 24  1  0
 50 59  2  0
 53 60  1  6
 19 25  2  0
 22 26  1  0
 61 62  2  0
 23 27  1  0
 62 63  1  0
 23 28  2  0
 63 64  2  0
 24 29  2  0
 64 65  1  0
 25 30  1  0
 65 66  2  0
 66 61  1  0
 15 61  1  0
 46 31  1  0
 65 67  1  0
 26 32  1  0
 64 68  1  0
 27 33  1  0
 63 69  1  0
  8 70  1  6
  5 71  1  1
  4 72  1  1
  3 73  1  6
M  END
>  <MOLREGNO>
445906

>  <CHEMBLID>
CHEMBL506069

>  <SYNONYMS>
Geraniin | Geraniiin

>  <MAX_PHASE>
0

>  <MOLWEIGHT>
952.64

>  <ALOGP>
1.46

>  <PSA>
450.25

>  <HBA>
27

>  <HBD>
14

>  <RO5>
3

>  <RTB>
3

>  <RO3>
N

>  <ACD_MOST_APKA>
6.35

>  <ACD_MOST_BPKA>


>  <ACD_LOGP>
2.68

>  <ACD_LOGD>
1.3

>  <AROMATIC_RINGS>
4

>  <HEAVY_ATOMS>
68

>  <QED_WEIGHTED>
.08

>  <HBA_LIPINSKI>
27

>  <HBD_LIPINSKI>
14

>  <NUM_LIPINSKI_RO5_VIOLATIONS>
2

>  <MW_MONOISOTOPIC>
952.0818

>  <MOLECULAR_SPECIES>
ACID

>  <FULL_MOLFORMULA>
C41H28O27

$$$$

  SciTegic01161211262D

 46 50  0  0  0  0            999 V2000
    1.3151   -3.6866    0.0000 C   0  0
    1.3151   -4.5116    0.0000 C   0  0  1  0  0  0
    2.0272   -4.9179    0.0000 C   0  0
    2.0272   -3.2679    0.0000 C   0  0
    2.7394   -3.6866    0.0000 C   0  0  1  0  0  0
    2.7410   -4.5116    0.0000 C   0  0
    3.4516   -4.9193    0.0000 C   0  0
    4.1677   -4.5089    0.0000 C   0  0
    3.4526   -3.2693    0.0000 C   0  0  2  0  0  0
    4.1656   -3.6867    0.0000 C   0  0  2  0  0  0
    4.1734   -2.0342    0.0000 C   0  0
    3.4540   -2.4423    0.0000 C   0  0
    0.6043   -4.9216    0.0000 O   0  0
    2.7325   -2.8616    0.0000 C   0  0
    4.8859   -1.6263    0.0000 C   0  0
    4.8906   -2.4490    0.0000 C   0  0  1  0  0  0
    4.8791   -3.2827    0.0000 C   0  0  1  0  0  0
    5.6672   -3.5493    0.0000 C   0  0
    6.1615   -2.8818    0.0000 C   0  0
    5.6844   -2.2043    0.0000 C   0  0  2  0  0  0
    5.6769   -1.3767    0.0000 C   0  0  1  0  0  0
    6.3871   -0.9584    0.0000 C   0  0
    7.1044   -1.3650    0.0000 C   0  0
    4.9554   -0.9700    0.0000 C   0  0
    7.8144   -0.9425    0.0000 C   0  0  2  0  0  0
    8.5319   -1.3492    0.0000 C   0  0
    9.2419   -0.9309    0.0000 C   0  0
    8.5393   -2.1742    0.0000 C   0  0
    7.8071   -0.1177    0.0000 C   0  0
    8.5172    0.3007    0.0000 C   0  0
    0.6061   -5.7466    0.0000 C   0  0  2  0  0  0
   -0.1099   -6.1624    0.0000 O   0  0
   -0.1112   -6.9819    0.0000 C   0  0  1  0  0  0
    0.6029   -7.3986    0.0000 C   0  0  2  0  0  0
    1.3165   -6.9864    0.0000 C   0  0  1  0  0  0
    1.3201   -6.1575    0.0000 C   0  0  1  0  0  0
   -0.8284   -7.3918    0.0000 C   0  0
    3.4453   -4.0928    0.0000 H   0  0
    4.1582   -2.8617    0.0000 H   0  0
    4.8710   -4.1076    0.0000 H   0  0
    6.4793   -1.9891    0.0000 H   0  0
   -0.1097   -5.3341    0.0000 H   0  0
    2.0354   -5.7439    0.0000 O   0  0
    2.0310   -7.3969    0.0000 O   0  0
    0.5999   -8.2236    0.0000 O   0  0
   -1.5386   -6.9767    0.0000 O   0  0
  3  6  1  0
 20 21  1  0
  5  4  1  0
 21 22  1  0
  5  6  1  0
 22 23  1  0
 21 24  1  6
  9 12  1  0
 23 25  1  0
 10 17  1  0
 25 26  1  0
 16 11  1  0
 26 27  1  0
 11 12  1  0
 26 28  1  0
  1  2  1  0
 25 29  1  1
  2 13  1  1
 29 30  1  0
  1  4  1  0
 31 13  1  0
 31 32  1  0
  5 14  1  1
  2  3  1  0
 16 15  1  1
 16 17  1  0
  5  9  1  0
 31 36  1  0
 32 33  1  0
 33 34  1  0
 34 35  1  0
 35 36  1  0
  6  7  2  0
  7  8  1  0
  8 10  1  0
  9 10  1  0
 33 37  1  1
 17 18  1  0
  9 38  1  6
 10 39  1  1
 17 40  1  6
 20 41  1  6
 31 42  1  6
 18 19  1  0
 19 20  1  0
 20 16  1  0
 35 44  1  1
 36 43  1  6
 34 45  1  6
 37 46  1  0
M  END
>  <MOLREGNO>
443286

>  <CHEMBLID>
CHEMBL506678

>  <SYNONYMS>
Daucosterol

>  <MAX_PHASE>
0

>  <MOLWEIGHT>
576.85

>  <ALOGP>
6.34

>  <PSA>
99.38

>  <HBA>
6

>  <HBD>
4

>  <RO5>
2

>  <RTB>
9

>  <RO3>
N

>  <ACD_MOST_APKA>
12.91

>  <ACD_MOST_BPKA>


>  <ACD_LOGP>
8.62

>  <ACD_LOGD>
8.62

>  <AROMATIC_RINGS>
0

>  <HEAVY_ATOMS>
41

>  <QED_WEIGHTED>
.24

>  <HBA_LIPINSKI>
6

>  <HBD_LIPINSKI>
4

>  <NUM_LIPINSKI_RO5_VIOLATIONS>
1

>  <MW_MONOISOTOPIC>
576.439

>  <MOLECULAR_SPECIES>
NEUTRAL

>  <FULL_MOLFORMULA>
C35H60O6

$$$$

  SciTegic01311317052D

 26 28  0  0  0  0            999 V2000
    6.9331   -1.4110    0.0000 C   0  0
    6.9313    0.2420    0.0000 C   0  0
    7.6466   -0.1672    0.0000 C   0  0
    7.6455   -0.9956    0.0000 C   0  0
    8.3584   -1.4086    0.0000 O   0  0
    9.0771   -0.9977    0.0000 C   0  0
    9.0783   -0.1692    0.0000 C   0  0
    8.3608    0.2484    0.0000 C   0  0
    9.7904   -1.4122    0.0000 O   0  0
    6.2182   -0.9982    0.0000 C   0  0
    6.2195   -0.1738    0.0000 C   0  0
    5.4359    0.0821    0.0000 C   0  0
    4.9503   -0.5841    0.0000 C   0  0
    5.4339   -1.2517    0.0000 O   0  0
    6.9275    1.0670    0.0000 O   0  0
    7.6400    1.4827    0.0000 C   0  0
    8.3564    1.0735    0.0000 C   0  0
    9.0689    1.4893    0.0000 C   0  0
    9.7853    1.0801    0.0000 C   0  0
    9.0651    2.3143    0.0000 C   0  0
   10.4979    1.4959    0.0000 C   0  0
   11.2142    1.0867    0.0000 C   0  0
   11.9268    1.5025    0.0000 C   0  0
   12.6432    1.0933    0.0000 C   0  0
   11.9230    2.3275    0.0000 C   0  0
   10.4941    2.3209    0.0000 O   0  0
  3  4  1  0
 11 12  1  0
 12 13  2  0
 13 14  1  0
 14 10  1  0
  3  8  1  0
  2 15  1  0
  4  5  1  0
 15 16  1  0
  5  6  1  0
 16 17  1  0
  6  7  1  0
 17 18  2  0
  7  8  2  0
 18 19  1  0
 10  1  1  0
 18 20  1  0
  6  9  2  0
 19 21  1  0
 10 11  2  0
 21 22  1  0
  1  4  2  0
 22 23  2  0
 23 24  1  0
  3  2  2  0
 23 25  1  0
  2 11  1  0
 21 26  1  0
M  END
>  <MOLREGNO>
430280

>  <CHEMBLID>
CHEMBL258939

>  <SYNONYMS>
notopterol

>  <MAX_PHASE>
0

>  <MOLWEIGHT>
354.4

>  <ALOGP>
4.38

>  <PSA>
68.9

>  <HBA>
4

>  <HBD>
1

>  <RO5>
0

>  <RTB>
6

>  <RO3>
N

>  <ACD_MOST_APKA>


>  <ACD_MOST_BPKA>


>  <ACD_LOGP>
3.78

>  <ACD_LOGD>
3.78

>  <AROMATIC_RINGS>
2

>  <HEAVY_ATOMS>
26

>  <QED_WEIGHTED>
.48

>  <HBA_LIPINSKI>
5

>  <HBD_LIPINSKI>
1

>  <NUM_LIPINSKI_RO5_VIOLATIONS>
0

>  <MW_MONOISOTOPIC>
354.1467

>  <MOLECULAR_SPECIES>
NEUTRAL

>  <FULL_MOLFORMULA>
C21H22O5

$$$$

  SciTegic11201309402D

 47 51  0  0  0  0            999 V2000
    6.9609   -3.2116    0.0000 C   0  0  2  0  0  0
    6.2464   -2.7991    0.0000 O   0  0
    5.5320   -3.2116    0.0000 C   0  0  1  0  0  0
    5.5319   -4.0366    0.0000 C   0  0  2  0  0  0
    6.2464   -4.4491    0.0000 C   0  0  1  0  0  0
    6.9609   -4.0366    0.0000 C   0  0  1  0  0  0
    4.8175   -4.4491    0.0000 O   0  0
    6.2464   -5.2741    0.0000 O   0  0
    7.6754   -4.4491    0.0000 O   0  0
    7.6754   -2.7991    0.0000 O   0  0
    8.3899   -3.2116    0.0000 C   0  0
    9.1043   -2.7991    0.0000 C   0  0
    8.3899   -4.0366    0.0000 O   0  0
    9.8188   -3.2116    0.0000 C   0  0
   10.5333   -2.7991    0.0000 C   0  0
   10.5333   -1.9741    0.0000 C   0  0
    9.8188   -1.5616    0.0000 C   0  0
    9.1043   -1.9741    0.0000 C   0  0
    4.8175   -2.7991    0.0000 C   0  0
    4.1030   -3.2116    0.0000 O   0  0
    3.3885   -2.7991    0.0000 C   0  0
    3.3885   -1.9741    0.0000 C   0  0
    2.6741   -3.2116    0.0000 O   0  0
    3.8011   -1.2596    0.0000 C   0  0
    3.3886   -0.5451    0.0000 C   0  0
    2.5635   -0.5452    0.0000 C   0  0
    2.1510   -1.2596    0.0000 C   0  0
    2.5635   -1.9741    0.0000 C   0  0
    4.6261   -1.2596    0.0000 C   0  0
    5.0386   -1.9741    0.0000 C   0  0
    5.8636   -1.9741    0.0000 C   0  0
    6.2761   -1.2596    0.0000 C   0  0
    5.8636   -0.5451    0.0000 C   0  0
    5.0386   -0.5451    0.0000 C   0  0
    5.6219   -2.5575    0.0000 C   0  0
    6.3364   -2.1450    0.0000 O   0  0
    7.1011   -1.2596    0.0000 O   0  0
    6.2761    0.1694    0.0000 O   0  0
    4.6261    0.1694    0.0000 O   0  0
    3.8011    0.1693    0.0000 O   0  0
    2.1510    0.1693    0.0000 O   0  0
    1.3260   -1.2596    0.0000 O   0  0
   11.2478   -3.2116    0.0000 O   0  0
   11.1166   -1.3907    0.0000 O   0  0
    9.8188   -0.7366    0.0000 O   0  0
    7.1124   -4.9491    0.0000 H   0  0
    5.5320   -2.2116    0.0000 H   0  0
  1  2  1  0
  6  1  1  0
  2  3  1  0
  3  4  1  0
  4  5  1  0
  5  6  1  0
  4  7  1  6
  5  8  1  0
  6  9  1  6
  1 10  1  1
 10 11  1  0
 11 12  1  0
 11 13  2  0
 12 14  2  0
 12 18  1  0
 14 15  1  0
 15 16  2  0
 16 17  1  0
 17 18  2  0
  3 19  1  0
 19 20  1  0
 20 21  1  0
 21 22  1  0
 21 23  2  0
 22 24  2  0
 22 28  1  0
 24 25  1  0
 25 26  2  0
 26 27  1  0
 27 28  2  0
 24 29  1  0
 29 30  1  0
 29 34  2  0
 30 31  2  0
 31 32  1  0
 32 33  2  0
 33 34  1  0
 30 35  1  0
 35  8  1  0
 35 36  2  0
 32 37  1  0
 33 38  1  0
 34 39  1  0
 25 40  1  0
 26 41  1  0
 27 42  1  0
 15 43  1  0
 16 44  1  0
 17 45  1  0
  5 46  1  6
  3 47  1  6
M  END
>  <MOLREGNO>
445907

>  <CHEMBLID>
CHEMBL449392

>  <SYNONYMS>
Corilagin

>  <MAX_PHASE>
0

>  <MOLWEIGHT>
634.45

>  <ALOGP>
1.13

>  <PSA>
310.65

>  <HBA>
18

>  <HBD>
11

>  <RO5>
3

>  <RTB>
3

>  <RO3>
N

>  <ACD_MOST_APKA>
7.53

>  <ACD_MOST_BPKA>


>  <ACD_LOGP>
1.07

>  <ACD_LOGD>
.77

>  <AROMATIC_RINGS>
3

>  <HEAVY_ATOMS>
45

>  <QED_WEIGHTED>
.14

>  <HBA_LIPINSKI>
18

>  <HBD_LIPINSKI>
11

>  <NUM_LIPINSKI_RO5_VIOLATIONS>
2

>  <MW_MONOISOTOPIC>
634.0806

>  <MOLECULAR_SPECIES>
NEUTRAL

>  <FULL_MOLFORMULA>
C27H22O18

$$$$

  Mrv0541 05211314572D          

 14 14  0  0  0  0            999 V2000
    0.5111   -4.3325    0.0000 C   0  0  0  0  0  0  0  0  0  0  0  0
    0.5111   -5.1575    0.0000 C   0  0  0  0  0  0  0  0  0  0  0  0
    1.2256   -5.5700    0.0000 C   0  0  0  0  0  0  0  0  0  0  0  0
    1.9400   -5.1575    0.0000 C   0  0  0  0  0  0  0  0  0  0  0  0
    1.9400   -4.3325    0.0000 C   0  0  0  0  0  0  0  0  0  0  0  0
    1.2256   -3.9200    0.0000 C   0  0  0  0  0  0  0  0  0  0  0  0
    1.2256   -3.0950    0.0000 O   0  0  0  0  0  0  0  0  0  0  0  0
    2.6545   -3.9200    0.0000 O   0  0  0  0  0  0  0  0  0  0  0  0
   -0.2034   -3.9200    0.0000 O   0  0  0  0  0  0  0  0  0  0  0  0
    1.2256   -6.3950    0.0000 C   0  0  0  0  0  0  0  0  0  0  0  0
    1.9400   -6.8075    0.0000 O   0  0  0  0  0  0  0  0  0  0  0  0
    0.5111   -6.8075    0.0000 O   0  0  0  0  0  0  0  0  0  0  0  0
   -0.9178   -4.3325    0.0000 C   0  0  0  0  0  0  0  0  0  0  0  0
    2.6545   -3.0950    0.0000 C   0  0  0  0  0  0  0  0  0  0  0  0
  6  7  1  0  0  0  0
  3  4  2  0  0  0  0
  5  8  1  0  0  0  0
  1  9  1  0  0  0  0
  4  5  1  0  0  0  0
  2  3  1  0  0  0  0
  5  6  2  0  0  0  0
 10 11  1  0  0  0  0
 10 12  2  0  0  0  0
  3 10  1  0  0  0  0
  6  1  1  0  0  0  0
  9 13  1  0  0  0  0
  1  2  2  0  0  0  0
  8 14  1  0  0  0  0
M  END
>  <MOLREGNO>
354990

>  <CHEMBLID>
CHEMBL1414

>  <SYNONYMS>
Syringic Acid

>  <MAX_PHASE>
0

>  <MOLWEIGHT>
198.17

>  <ALOGP>
1.18

>  <PSA>
75.99

>  <HBA>
5

>  <HBD>
2

>  <RO5>
0

>  <RTB>
3

>  <RO3>
N

>  <ACD_MOST_APKA>
4.33

>  <ACD_MOST_BPKA>


>  <ACD_LOGP>
1.28

>  <ACD_LOGD>
-1.6

>  <AROMATIC_RINGS>
1

>  <HEAVY_ATOMS>
14

>  <QED_WEIGHTED>
.76

>  <HBA_LIPINSKI>
5

>  <HBD_LIPINSKI>
2

>  <NUM_LIPINSKI_RO5_VIOLATIONS>
0

>  <MW_MONOISOTOPIC>
198.0528

>  <MOLECULAR_SPECIES>
ACID

>  <FULL_MOLFORMULA>
C9H10O5

$$$$

  SciTegic12011114592D

 22 25  0  0  0  0            999 V2000
   -3.9270   -1.4012    0.0000 C   0  0
   -3.9270   -2.2234    0.0000 C   0  0
   -3.2132   -2.6324    0.0000 C   0  0
   -2.5019   -2.2234    0.0000 N   0  0
   -1.7895   -2.6339    0.0000 C   0  0
   -1.0760   -2.2249    0.0000 C   0  0
   -1.0776   -1.3986    0.0000 C   0  0
   -3.2132   -0.9839    0.0000 C   0  0  1  0  0  0
   -2.5026   -1.4000    0.0000 C   0  0  1  0  0  0
   -1.7883   -0.9931    0.0000 C   0  0  1  0  0  0
   -3.2135   -0.1610    0.0000 C   0  0
   -2.4979    0.2482    0.0000 N   0  0
   -1.7807   -0.1662    0.0000 C   0  0  2  0  0  0
   -1.0644    0.2431    0.0000 C   0  0
   -1.0640    1.0734    0.0000 C   0  0
   -1.7812    1.4878    0.0000 C   0  0
   -2.4987    1.0719    0.0000 C   0  0
   -3.2208   -1.8102    0.0000 H   0  0
   -2.5105   -0.5728    0.0000 H   0  0
   -1.7959   -1.8187    0.0000 H   0  0
   -3.2126    1.4866    0.0000 O   0  0
   -1.7807    0.6601    0.0000 H   0  0
  1  2  1  0
  1  8  1  0
  2  3  1  0
  3  4  1  0
  9  4  1  0
  4  5  1  0
  5  6  1  0
  6  7  1  0
  7 10  1  0
  8  9  1  0
  8 11  1  0
  9 10  1  0
 10 13  1  0
 12 11  1  0
 12 13  1  0
 12 17  1  0
 13 14  1  0
 14 15  1  0
 15 16  1  0
 16 17  1  0
  8 18  1  1
  9 19  1  6
 10 20  1  6
 17 21  2  0
 13 22  1  1
M  END
>  <MOLREGNO>
1174683

>  <CHEMBLID>
CHEMBL1824581

>  <SYNONYMS>
Sophoridine

>  <MAX_PHASE>
0

>  <MOLWEIGHT>
248.36

>  <ALOGP>
1.42

>  <PSA>
23.55

>  <HBA>
2

>  <HBD>
0

>  <RO5>
0

>  <RTB>
0

>  <RO3>
Y

>  <ACD_MOST_APKA>


>  <ACD_MOST_BPKA>
9.47

>  <ACD_LOGP>
2.92

>  <ACD_LOGD>
1.01

>  <AROMATIC_RINGS>
0

>  <HEAVY_ATOMS>
18

>  <QED_WEIGHTED>
.65

>  <HBA_LIPINSKI>
3

>  <HBD_LIPINSKI>
0

>  <NUM_LIPINSKI_RO5_VIOLATIONS>
0

>  <MW_MONOISOTOPIC>
248.1889

>  <MOLECULAR_SPECIES>
BASE

>  <FULL_MOLFORMULA>
C15H24N2O

$$$$

  SciTegic12231509382D

 47 54  0  0  0  0            999 V2000
   -4.8826  -11.7020    0.0000 C   0  0
   -3.2274  -11.6333    0.0000 C   0  0
   -3.6124  -12.3704    0.0000 C   0  0
   -4.4429  -12.4058    0.0000 C   0  0
   -4.8253  -13.1338    0.0000 C   0  0
   -4.3866  -13.8362    0.0000 C   0  0
   -3.5608  -13.8010    0.0000 N   0  0
   -3.1690  -13.0677    0.0000 C   0  0  1  0  0  0
   -4.4902  -10.9706    0.0000 C   0  0
   -3.6664  -10.9360    0.0000 C   0  0
   -3.4455  -10.1466    0.0000 O   0  0
   -4.1270   -9.6860    0.0000 C   0  0
   -4.7721  -10.1934    0.0000 O   0  0
   -3.1170  -14.5011    0.0000 C   0  0
   -2.4595  -12.6513    0.0000 C   0  0
   -1.7412  -13.0570    0.0000 C   0  0
   -1.7335  -13.8807    0.0000 C   0  0
   -1.0162  -14.2862    0.0000 C   0  0
   -0.3022  -13.8679    0.0000 C   0  0
   -0.3154  -13.0344    0.0000 C   0  0
   -1.0332  -12.6330    0.0000 C   0  0
   -2.7636  -13.7797    0.0000 H   0  0
   -2.3994  -11.5995    0.0000 O   0  0
   -0.6862  -10.9303    0.0000 C   0  0
    0.0299  -11.3382    0.0000 C   0  0
    0.0090   -9.6848    0.0000 C   0  0
   -0.6985  -10.1087    0.0000 C   0  0
    0.7312  -10.0891    0.0000 C   0  0
    0.7360  -10.9147    0.0000 C   0  0
    1.4446  -11.3207    0.0000 C   0  0  2  0  0  0
    2.1580  -10.9063    0.0000 N   0  0
    2.1531  -10.0854    0.0000 C   0  0
    1.4395   -9.6743    0.0000 C   0  0
   -1.4229   -9.7057    0.0000 O   0  0
   -1.4311   -8.8769    0.0000 C   0  0
    2.8779  -11.3175    0.0000 C   0  0
    2.1529  -11.7331    0.0000 C   0  0
    2.1498  -12.5572    0.0000 C   0  0
    1.4315  -12.9651    0.0000 C   0  0
    1.4280  -13.7931    0.0000 C   0  0
    2.1450  -14.2063    0.0000 C   0  0
    2.8626  -13.7944    0.0000 C   0  0
    2.8621  -12.9678    0.0000 C   0  0
    0.4167  -14.2725    0.0000 O   0  0
    2.1432  -15.0351    0.0000 O   0  0
    1.4244  -15.4478    0.0000 C   0  0
    0.8565  -11.9013    0.0000 H   0  0
  8 22  1  1
  2 23  1  0
  3  2  1  0
  2 10  2  0
 24 25  2  0
 25 29  1  0
 10 11  1  0
 28 26  1  0
 11 12  1  0
 26 27  2  0
 27 24  1  0
 28 29  2  0
 12 13  1  0
 13  9  1  0
  3  4  2  0
  7 14  1  0
  3  8  1  0
  8 15  1  0
 28 33  1  0
 29 30  1  0
 30 31  1  0
 31 32  1  0
 32 33  1  0
  4  5  1  0
 27 34  1  0
 15 16  1  0
 34 35  1  0
  5  6  1  0
 31 36  1  0
 16 17  2  0
 30 37  1  0
  6  7  1  0
 37 38  1  0
 17 18  1  0
 38 39  2  0
  7  8  1  0
 39 40  1  0
 18 19  2  0
 40 41  2  0
  9 10  1  0
 41 42  1  0
 19 20  1  0
 42 43  2  0
 43 38  1  0
 23 24  1  0
  9  1  2  0
 19 44  1  0
 44 40  1  0
 20 21  2  0
 41 45  1  0
 21 16  1  0
 45 46  1  0
  1  4  1  0
 30 47  1  1
M  END
>  <MOLREGNO>
484016

>  <CHEMBLID>
CHEMBL449782

>  <SYNONYMS>
CEPHARANTHINE | (+)-Cepharanthine | [14C]-Cepharanthine

>  <MAX_PHASE>
0

>  <MOLWEIGHT>
606.71

>  <ALOGP>
7.02

>  <PSA>
61.86

>  <HBA>
8

>  <HBD>
0

>  <RO5>
2

>  <RTB>
2

>  <RO3>
N

>  <ACD_MOST_APKA>


>  <ACD_MOST_BPKA>
7.61

>  <ACD_LOGP>
6.29

>  <ACD_LOGD>
5.63

>  <AROMATIC_RINGS>
4

>  <HEAVY_ATOMS>
45

>  <QED_WEIGHTED>
.24

>  <HBA_LIPINSKI>
8

>  <HBD_LIPINSKI>
0

>  <NUM_LIPINSKI_RO5_VIOLATIONS>
1

>  <MW_MONOISOTOPIC>
606.273

>  <MOLECULAR_SPECIES>
NEUTRAL

>  <FULL_MOLFORMULA>
C37H38N2O6

$$$$

  SciTegic12231509382D

 16 18  0  0  0  0            999 V2000
    2.4942   -0.0844    0.0000 O   0  0
    5.3276   -0.8394    0.0000 N   0  0
    7.3541    0.0871    0.0000 N   0  0
    5.7401    0.4302    0.0000 C   0  0
    4.9151    0.4302    0.0000 C   0  0
    5.9951   -0.3545    0.0000 C   0  0
    4.6602   -0.3545    0.0000 C   0  0
    6.8021   -0.5260    0.0000 C   0  0
    3.8532   -0.5260    0.0000 C   0  0
    4.3631    1.0432    0.0000 C   0  0
    6.2922    1.0432    0.0000 C   0  0
    3.3012    0.0871    0.0000 C   0  0
    3.5561    0.8717    0.0000 C   0  0
    7.0991    0.8717    0.0000 C   0  0
    7.0570   -1.3106    0.0000 C   0  0
    2.2393   -0.8691    0.0000 C   0  0
  1 12  1  0
  1 16  1  0
  2  6  1  0
  2  7  1  0
  3  8  1  0
  3 14  2  0
  4  5  1  0
  4  6  1  0
  4 11  2  0
  5  7  1  0
  5 10  2  0
  6  8  2  0
  7  9  2  0
  8 15  1  0
  9 12  1  0
 10 13  1  0
 11 14  1  0
 12 13  2  0
M  END
>  <MOLREGNO>
322

>  <CHEMBLID>
CHEMBL269538

>  <SYNONYMS>
Harmine Hydrochloride | Harmine Hydrochloride Hydrate | HARMINE

>  <MAX_PHASE>
0

>  <MOLWEIGHT>
212.25

>  <ALOGP>
2.44

>  <PSA>
37.9

>  <HBA>
2

>  <HBD>
1

>  <RO5>
0

>  <RTB>
1

>  <RO3>
Y

>  <ACD_MOST_APKA>
4.61

>  <ACD_MOST_BPKA>


>  <ACD_LOGP>
7.65

>  <ACD_LOGD>
4.91

>  <AROMATIC_RINGS>
3

>  <HEAVY_ATOMS>
16

>  <QED_WEIGHTED>
.67

>  <HBA_LIPINSKI>
3

>  <HBD_LIPINSKI>
1

>  <NUM_LIPINSKI_RO5_VIOLATIONS>
0

>  <MW_MONOISOTOPIC>
212.095

>  <MOLECULAR_SPECIES>
ACID

>  <FULL_MOLFORMULA>
C13H12N2O

$$$$

          08180812472D 1   1.00000     0.00000     0

 28 33  0     1  0            999 V2000
    1.1208   -4.4769    0.0000 C   0  0  0  0  0  0           0  0  0
    1.1208   -5.3030    0.0000 C   0  0  0  0  0  0           0  0  0
    1.8322   -5.7137    0.0000 C   0  0  3  0  0  0           0  0  0
    1.8322   -4.0617    0.0000 C   0  0  0  0  0  0           0  0  0
    2.5481   -4.4769    0.0000 C   0  0  2  0  0  0           0  0  0
    2.5492   -5.3030    0.0000 C   0  0  2  0  0  0           0  0  0
    3.2611   -5.7128    0.0000 C   0  0  0  0  0  0           0  0  0
    3.9765   -5.3011    0.0000 C   0  0  0  0  0  0           0  0  0
    3.2589   -4.0608    0.0000 C   0  0  1  0  0  0           0  0  0
    3.9741   -4.4720    0.0000 C   0  0  2  0  0  0           0  0  0
    4.6838   -4.0605    0.0000 C   0  0  1  0  0  0           0  0  0
    3.2536   -3.2381    0.0000 C   0  0  2  0  0  0           0  0  0
    3.9695   -2.8250    0.0000 C   0  0  1  0  0  0           0  0  0
    4.6850   -3.2359    0.0000 C   0  0  0  0  0  0           0  0  0
    5.2969   -2.6824    0.0000 C   0  0  0  0  0  0           0  0  0
    4.9596   -1.9292    0.0000 C   0  0  0  0  0  0           0  0  0
    4.1392   -2.0175    0.0000 O   0  0  0  0  0  0           0  0  0
    3.2565   -2.4143    0.0000 O   0  0  0  0  0  0           0  0  0
    2.4305   -3.2311    0.0000 H   0  0  0  0  0  0           0  0  0
    6.1008   -2.8513    0.0000 C   0  0  0  0  0  0           0  0  0
    5.3686   -1.2169    0.0000 O   0  0  0  0  0  0           0  0  0
    4.6757   -4.8786    0.0000 O   0  0  0  0  0  0           0  0  0
    5.4698   -4.2671    0.0000 H   0  0  0  0  0  0           0  0  0
    2.5417   -3.6500    0.0000 C   0  0  0  0  0  0           0  0  0
    1.4167   -6.4208    0.0000 C   0  0  0  0  0  0           0  0  0
    2.2375   -6.4208    0.0000 C   0  0  0  0  0  0           0  0  0
    2.5417   -6.1208    0.0000 H   0  0  0  0  0  0           0  0  0
    3.2542   -4.8792    0.0000 H   0  0  0  0  0  0           0  0  0
  5  9  1  0     0  0
  6  7  1  0     0  0
 14 15  2  0     0  0
 15 16  1  0     0  0
 16 17  1  0     0  0
 17 13  1  0     0  0
 12 18  1  0     0  0
  7  8  1  0     0  0
 13 18  1  1     0  0
  8 10  1  0     0  0
 12 19  1  6     0  0
  9 10  1  0     0  0
 15 20  1  0     0  0
  3  6  1  0     0  0
 16 21  2  0     0  0
 10 22  1  1     0  0
  5  4  1  0     0  0
 11 22  1  0     0  0
  5  6  1  0     0  0
 11 23  1  6     0  0
  9 12  1  0     0  0
 10 11  1  0     0  0
 11 14  1  0     0  0
 13 12  1  0     0  0
  5 24  1  6     0  0
 13 14  1  0     0  0
  3 25  1  0     0  0
  1  2  1  0     0  0
  3 26  1  0     0  0
  1  4  1  0     0  0
  6 27  1  1     0  0
  2  3  1  0     0  0
  9 28  1  1     0  0
M  END
>  <MOLREGNO>
425443

>  <CHEMBLID>
CHEMBL404387

>  <SYNONYMS>
JOLKINOLIDE B

>  <MAX_PHASE>
0

>  <MOLWEIGHT>
330.42

>  <ALOGP>
3.22

>  <PSA>
51.36

>  <HBA>
4

>  <HBD>
0

>  <RO5>
0

>  <RTB>
0

>  <RO3>
N

>  <ACD_MOST_APKA>


>  <ACD_MOST_BPKA>


>  <ACD_LOGP>
2.09

>  <ACD_LOGD>
2.09

>  <AROMATIC_RINGS>
0

>  <HEAVY_ATOMS>
24

>  <QED_WEIGHTED>
.64

>  <HBA_LIPINSKI>
4

>  <HBD_LIPINSKI>
0

>  <NUM_LIPINSKI_RO5_VIOLATIONS>
0

>  <MW_MONOISOTOPIC>
330.1831

>  <MOLECULAR_SPECIES>


>  <FULL_MOLFORMULA>
C20H26O4

$$$$

  CDK    9/16/09,9:19

 40 39  0  0  0  0  0  0  0  0999 V2000
   -5.4914  -24.3181    0.0000 C   0  0  0  0  0  0  0  0  0  0  0  0
   -4.7780  -23.9038    0.0000 C   0  0  0  0  0  0  0  0  0  0  0  0
   -4.0646  -24.3181    0.0000 C   0  0  0  0  0  0  0  0  0  0  0  0
   -3.3510  -23.9038    0.0000 C   0  0  0  0  0  0  0  0  0  0  0  0
   -2.6376  -24.3181    0.0000 C   0  0  0  0  0  0  0  0  0  0  0  0
   -1.9241  -23.9038    0.0000 C   0  0  0  0  0  0  0  0  0  0  0  0
   -1.2106  -24.3181    0.0000 C   0  0  0  0  0  0  0  0  0  0  0  0
   -0.4971  -23.9038    0.0000 C   0  0  0  0  0  0  0  0  0  0  0  0
    0.2163  -24.3181    0.0000 C   0  0  0  0  0  0  0  0  0  0  0  0
    0.9299  -23.9038    0.0000 C   0  0  0  0  0  0  0  0  0  0  0  0
    1.6433  -24.3181    0.0000 C   0  0  0  0  0  0  0  0  0  0  0  0
    2.3567  -23.9038    0.0000 C   0  0  0  0  0  0  0  0  0  0  0  0
    3.0703  -24.3181    0.0000 C   0  0  0  0  0  0  0  0  0  0  0  0
    3.7837  -23.9038    0.0000 C   0  0  0  0  0  0  0  0  0  0  0  0
    4.4972  -24.3181    0.0000 C   0  0  0  0  0  0  0  0  0  0  0  0
    5.2107  -23.9038    0.0000 C   0  0  0  0  0  0  0  0  0  0  0  0
    5.9242  -24.3181    0.0000 C   0  0  0  0  0  0  0  0  0  0  0  0
    6.6376  -23.9038    0.0000 C   0  0  0  0  0  0  0  0  0  0  0  0
    7.3512  -24.3181    0.0000 C   0  0  0  0  0  0  0  0  0  0  0  0
    8.0646  -23.9038    0.0000 C   0  0  0  0  0  0  0  0  0  0  0  0
    8.7780  -24.3181    0.0000 C   0  0  0  0  0  0  0  0  0  0  0  0
    9.4916  -23.9038    0.0000 C   0  0  0  0  0  0  0  0  0  0  0  0
   10.2050  -24.3181    0.0000 C   0  0  0  0  0  0  0  0  0  0  0  0
   10.9185  -23.9038    0.0000 C   0  0  0  0  0  0  0  0  0  0  0  0
   11.6320  -24.3181    0.0000 C   0  0  0  0  0  0  0  0  0  0  0  0
   12.3455  -23.9038    0.0000 C   0  0  0  0  0  0  0  0  0  0  0  0
   13.0589  -24.3181    0.0000 C   0  0  0  0  0  0  0  0  0  0  0  0
   13.7725  -23.9038    0.0000 C   0  0  0  0  0  0  0  0  0  0  0  0
   14.4859  -24.3181    0.0000 C   0  0  0  0  0  0  0  0  0  0  0  0
   15.1994  -23.9038    0.0000 C   0  0  0  0  0  0  0  0  0  0  0  0
   15.9129  -24.3181    0.0000 C   0  0  0  0  0  0  0  0  0  0  0  0
   16.6263  -23.9038    0.0000 C   0  0  0  0  0  0  0  0  0  0  0  0
   -4.7780  -23.0753    0.0000 C   0  0  0  0  0  0  0  0  0  0  0  0
   -1.9241  -23.0753    0.0000 C   0  0  0  0  0  0  0  0  0  0  0  0
    0.9299  -23.0753    0.0000 C   0  0  0  0  0  0  0  0  0  0  0  0
    3.7837  -23.0753    0.0000 C   0  0  0  0  0  0  0  0  0  0  0  0
    7.3512  -25.1467    0.0000 C   0  0  0  0  0  0  0  0  0  0  0  0
   10.2050  -25.1467    0.0000 C   0  0  0  0  0  0  0  0  0  0  0  0
   13.0589  -25.1467    0.0000 C   0  0  0  0  0  0  0  0  0  0  0  0
   15.9129  -25.1467    0.0000 C   0  0  0  0  0  0  0  0  0  0  0  0
  2  3  2  0  0  0  0 
 20 21  2  0  0  0  0 
 10 11  2  0  0  0  0 
 21 22  1  0  0  0  0 
  5  6  1  0  0  0  0 
 22 23  2  0  0  0  0 
 11 12  1  0  0  0  0 
 23 24  1  0  0  0  0 
  1  2  1  0  0  0  0 
 24 25  2  0  0  0  0 
 12 13  2  0  0  0  0 
 25 26  1  0  0  0  0 
  6  7  2  0  0  0  0 
 26 27  2  0  0  0  0 
 13 14  1  0  0  0  0 
 27 28  1  0  0  0  0 
  3  4  1  0  0  0  0 
 28 29  1  0  0  0  0 
 14 15  2  0  0  0  0 
 29 30  1  0  0  0  0 
  7  8  1  0  0  0  0 
 30 31  2  0  0  0  0 
 15 16  1  0  0  0  0 
 31 32  1  0  0  0  0 
  2 33  1  0  0  0  0 
 16 17  2  0  0  0  0 
  6 34  1  0  0  0  0 
  8  9  2  0  0  0  0 
 10 35  1  0  0  0  0 
 17 18  1  0  0  0  0 
 14 36  1  0  0  0  0 
  4  5  1  0  0  0  0 
 19 37  1  0  0  0  0 
 18 19  2  0  0  0  0 
 23 38  1  0  0  0  0 
  9 10  1  0  0  0  0 
 27 39  1  0  0  0  0 
 19 20  1  0  0  0  0 
 31 40  1  0  0  0  0 
M  END
>  <MOLREGNO>
502735

>  <CHEMBLID>
CHEMBL501174

>  <SYNONYMS>
E160d

>  <MAX_PHASE>
0

>  <MOLWEIGHT>
536.87

>  <ALOGP>
12.76

>  <PSA>
0

>  <HBA>
0

>  <HBD>
0

>  <RO5>
2

>  <RTB>
16

>  <RO3>
N

>  <ACD_MOST_APKA>


>  <ACD_MOST_BPKA>


>  <ACD_LOGP>
14.53

>  <ACD_LOGD>
14.53

>  <AROMATIC_RINGS>
0

>  <HEAVY_ATOMS>
40

>  <QED_WEIGHTED>
.14

>  <HBA_LIPINSKI>
0

>  <HBD_LIPINSKI>
0

>  <NUM_LIPINSKI_RO5_VIOLATIONS>
1

>  <MW_MONOISOTOPIC>
536.4382

>  <MOLECULAR_SPECIES>


>  <FULL_MOLFORMULA>
C40H56

$$$$

  CDK    6/4/10,11:42

 31 34  0  0  0  0  0  0  0  0999 V2000
   -2.7909  -18.0323    0.0000 C   0  0  0  0  0  0  0  0  0  0  0  0
   -3.4995  -17.6186    0.0000 O   0  0  0  0  0  0  0  0  0  0  0  0
   -4.2092  -18.0293    0.0000 C   0  0  0  0  0  0  0  0  0  0  0  0
   -4.2111  -18.8543    0.0000 C   0  0  0  0  0  0  0  0  0  0  0  0
   -3.4938  -19.2657    0.0000 C   0  0  0  0  0  0  0  0  0  0  0  0
   -2.7788  -18.8525    0.0000 C   0  0  0  0  0  0  0  0  0  0  0  0
   -4.9244  -17.6171    0.0000 C   0  0  0  0  0  0  0  0  0  0  0  0
   -2.0734  -16.7932    0.0000 C   0  0  0  0  0  0  0  0  0  0  0  0
   -2.0751  -17.6211    0.0000 C   0  0  0  0  0  0  0  0  0  0  0  0
   -1.3593  -18.0338    0.0000 C   0  0  0  0  0  0  0  0  0  0  0  0
   -1.3621  -16.3806    0.0000 C   0  0  0  0  0  0  0  0  0  0  0  0
   -0.6454  -16.7877    0.0000 C   0  0  0  0  0  0  0  0  0  0  0  0
   -0.6472  -17.6173    0.0000 C   0  0  0  0  0  0  0  0  0  0  0  0
    0.0658  -18.0301    0.0000 C   0  0  0  0  0  0  0  0  0  0  0  0
    0.7792  -17.6204    0.0000 C   0  0  0  0  0  0  0  0  0  0  0  0
    0.7810  -16.7908    0.0000 C   0  0  0  0  0  0  0  0  0  0  0  0
    0.0651  -16.3751    0.0000 O   0  0  0  0  0  0  0  0  0  0  0  0
    0.0623  -18.8545    0.0000 O   0  0  0  0  0  0  0  0  0  0  0  0
    1.4949  -16.3857    0.0000 C   0  0  0  0  0  0  0  0  0  0  0  0
    2.2091  -16.7990    0.0000 C   0  0  0  0  0  0  0  0  0  0  0  0
    2.9251  -16.3904    0.0000 C   0  0  0  0  0  0  0  0  0  0  0  0
    2.9247  -15.5648    0.0000 C   0  0  0  0  0  0  0  0  0  0  0  0
    2.2075  -15.1502    0.0000 C   0  0  0  0  0  0  0  0  0  0  0  0
    1.4959  -15.5623    0.0000 C   0  0  0  0  0  0  0  0  0  0  0  0
   -2.0639  -19.2621    0.0000 O   0  0  0  0  0  0  0  0  0  0  0  0
   -3.4935  -20.0900    0.0000 O   0  0  0  0  0  0  0  0  0  0  0  0
   -4.9223  -19.2662    0.0000 O   0  0  0  0  0  0  0  0  0  0  0  0
   -4.9243  -16.7928    0.0000 O   0  0  0  0  0  0  0  0  0  0  0  0
   -1.3609  -18.8582    0.0000 O   0  0  0  0  0  0  0  0  0  0  0  0
   -2.7888  -16.3813    0.0000 O   0  0  0  0  0  0  0  0  0  0  0  0
    3.6406  -15.1538    0.0000 O   0  0  0  0  0  0  0  0  0  0  0  0
  3  7  1  1  0  0  0 
  8  9  2  0  0  0  0 
  9 10  1  0  0  0  0 
 10 13  2  0  0  0  0 
 12 11  2  0  0  0  0 
 11  8  1  0  0  0  0 
 12 13  1  0  0  0  0 
 12 17  1  0  0  0  0 
 13 14  1  0  0  0  0 
 14 15  1  0  0  0  0 
 15 16  2  0  0  0  0 
 16 17  1  0  0  0  0 
 14 18  2  0  0  0  0 
 19 20  2  0  0  0  0 
 20 21  1  0  0  0  0 
 21 22  2  0  0  0  0 
 22 23  1  0  0  0  0 
 23 24  2  0  0  0  0 
 24 19  1  0  0  0  0 
 16 19  1  0  0  0  0 
  1  9  1  1  0  0  0 
  1  2  1  0  0  0  0 
  1  6  1  0  0  0  0 
  2  3  1  0  0  0  0 
  3  4  1  0  0  0  0 
  4  5  1  0  0  0  0 
  5  6  1  0  0  0  0 
  7 28  1  0  0  0  0 
  5 26  1  1  0  0  0 
 10 29  1  0  0  0  0 
  6 25  1  6  0  0  0 
  8 30  1  0  0  0  0 
  4 27  1  6  0  0  0 
 22 31  1  0  0  0  0 
M  END
>  <MOLREGNO>
462920

>  <CHEMBLID>
CHEMBL465360

>  <SYNONYMS>
Isovitexin

>  <MAX_PHASE>
0

>  <MOLWEIGHT>
432.38

>  <ALOGP>
.02

>  <PSA>
177.14

>  <HBA>
10

>  <HBD>
7

>  <RO5>
1

>  <RTB>
3

>  <RO3>
N

>  <ACD_MOST_APKA>
5.93

>  <ACD_MOST_BPKA>


>  <ACD_LOGP>
.35

>  <ACD_LOGD>
-1.58

>  <AROMATIC_RINGS>
2

>  <HEAVY_ATOMS>
31

>  <QED_WEIGHTED>
.35

>  <HBA_LIPINSKI>
10

>  <HBD_LIPINSKI>
7

>  <NUM_LIPINSKI_RO5_VIOLATIONS>
1

>  <MW_MONOISOTOPIC>
432.1056

>  <MOLECULAR_SPECIES>
ACID

>  <FULL_MOLFORMULA>
C21H20O10

$$$$

  CDK    9/16/09,9:20

 81 90  0  0  0  0  0  0  0  0999 V2000
    4.5792  -10.6875    0.0000 C   0  0  0  0  0  0  0  0  0  0  0  0
    4.5792  -11.5125    0.0000 C   0  0  0  0  0  0  0  0  0  0  0  0
    5.2912  -11.9208    0.0000 C   0  0  0  0  0  0  0  0  0  0  0  0
    5.2912  -10.2708    0.0000 C   0  0  0  0  0  0  0  0  0  0  0  0
    6.0032  -10.6875    0.0000 C   0  0  0  0  0  0  0  0  0  0  0  0
    5.9997  -11.5125    0.0000 C   0  0  0  0  0  0  0  0  0  0  0  0
    6.7085  -11.9257    0.0000 C   0  0  0  0  0  0  0  0  0  0  0  0
    7.4253  -11.5185    0.0000 C   0  0  0  0  0  0  0  0  0  0  0  0
    6.7155  -10.2757    0.0000 C   0  0  0  0  0  0  0  0  0  0  0  0
    7.4249  -10.6961    0.0000 C   0  0  0  0  0  0  0  0  0  0  0  0
    7.4418   -9.0499    0.0000 C   0  0  0  0  0  0  0  0  0  0  0  0
    6.7208   -9.4534    0.0000 C   0  0  0  0  0  0  0  0  0  0  0  0
    8.1512   -9.4702    0.0000 C   0  0  0  0  0  0  0  0  0  0  0  0
    8.1374  -10.2914    0.0000 C   0  0  0  0  0  0  0  0  0  0  0  0
    8.8377  -10.7117    0.0000 C   0  0  0  0  0  0  0  0  0  0  0  0
    9.5564  -10.3153    0.0000 C   0  0  0  0  0  0  0  0  0  0  0  0
    8.8654   -9.0692    0.0000 C   0  0  0  0  0  0  0  0  0  0  0  0
    9.5698   -9.4985    0.0000 C   0  0  0  0  0  0  0  0  0  0  0  0
   10.2898   -9.1053    0.0000 C   0  0  0  0  0  0  0  0  0  0  0  0
   10.3116   -8.2813    0.0000 C   0  0  0  0  0  0  0  0  0  0  0  0
    9.6072   -7.8520    0.0000 C   0  0  0  0  0  0  0  0  0  0  0  0
    8.8810   -8.2468    0.0000 C   0  0  0  0  0  0  0  0  0  0  0  0
    9.1875   -7.1333    0.0000 C   0  0  0  0  0  0  0  0  0  0  0  0
    8.1458   -8.6417    0.0000 O   0  0  0  0  0  0  0  0  0  0  0  0
    9.5625   -8.6708    0.0000 C   0  0  0  0  0  0  0  0  0  0  0  0
   10.0125   -7.1333    0.0000 C   0  0  0  0  0  0  0  0  0  0  0  0
   10.2634  -10.7406    0.0000 O   0  0  0  0  0  0  0  0  0  0  0  0
    8.1292  -11.1125    0.0000 C   0  0  0  0  0  0  0  0  0  0  0  0
    7.4167   -9.8708    0.0000 C   0  0  0  0  0  0  0  0  0  0  0  0
    5.9958   -9.8625    0.0000 C   0  0  0  0  0  0  0  0  0  0  0  0
    4.8708  -12.6333    0.0000 C   0  0  0  0  0  0  0  0  0  0  0  0
    5.5000  -12.7167    0.0000 C   0  0  0  0  0  0  0  0  0  0  0  0
    3.8653  -11.9260    0.0000 O   0  0  0  0  0  0  0  0  0  0  0  0
    3.1502  -11.5146    0.0000 C   0  0  0  0  0  0  0  0  0  0  0  0
    3.1467  -10.6909    0.0000 O   0  0  0  0  0  0  0  0  0  0  0  0
    2.4357  -10.2795    0.0000 C   0  0  0  0  0  0  0  0  0  0  0  0
    1.7194  -10.6895    0.0000 C   0  0  0  0  0  0  0  0  0  0  0  0
    1.7186  -11.5155    0.0000 C   0  0  0  0  0  0  0  0  0  0  0  0
    2.4342  -11.9314    0.0000 C   0  0  0  0  0  0  0  0  0  0  0  0
    2.4344  -12.7564    0.0000 O   0  0  0  0  0  0  0  0  0  0  0  0
    1.7201  -13.1692    0.0000 C   0  0  0  0  0  0  0  0  0  0  0  0
    6.7083  -11.1000    0.0000 H   0  0  0  0  0  0  0  0  0  0  0  0
    5.9917  -12.3333    0.0000 H   0  0  0  0  0  0  0  0  0  0  0  0
    8.8583   -9.8917    0.0000 H   0  0  0  0  0  0  0  0  0  0  0  0
    1.0034  -11.9266    0.0000 O   0  0  0  0  0  0  0  0  0  0  0  0
    1.0059  -10.2754    0.0000 O   0  0  0  0  0  0  0  0  0  0  0  0
    1.0078   -9.4504    0.0000 C   0  0  0  0  0  0  0  0  0  0  0  0
    1.7307   -9.0422    0.0000 O   0  0  0  0  0  0  0  0  0  0  0  0
    1.7346   -8.2208    0.0000 C   0  0  0  0  0  0  0  0  0  0  0  0
    1.0229   -7.8028    0.0000 C   0  0  0  0  0  0  0  0  0  0  0  0
    0.3057   -8.2124    0.0000 C   0  0  0  0  0  0  0  0  0  0  0  0
    0.3001   -9.0400    0.0000 C   0  0  0  0  0  0  0  0  0  0  0  0
    1.0099  -12.7528    0.0000 O   0  0  0  0  0  0  0  0  0  0  0  0
    0.2977  -13.1620    0.0000 C   0  0  0  0  0  0  0  0  0  0  0  0
    0.2937  -13.9874    0.0000 C   0  0  0  0  0  0  0  0  0  0  0  0
    1.0081  -14.4018    0.0000 C   0  0  0  0  0  0  0  0  0  0  0  0
    1.7265  -13.9910    0.0000 C   0  0  0  0  0  0  0  0  0  0  0  0
    2.4418  -14.4021    0.0000 O   0  0  0  0  0  0  0  0  0  0  0  0
   -0.4222  -14.3974    0.0000 O   0  0  0  0  0  0  0  0  0  0  0  0
    1.7125  -12.3417    0.0000 H   0  0  0  0  0  0  0  0  0  0  0  0
    1.7167   -9.8625    0.0000 H   0  0  0  0  0  0  0  0  0  0  0  0
   -0.4162   -9.4494    0.0000 O   0  0  0  0  0  0  0  0  0  0  0  0
    1.0280   -6.9778    0.0000 O   0  0  0  0  0  0  0  0  0  0  0  0
   -0.4064   -7.7958    0.0000 O   0  0  0  0  0  0  0  0  0  0  0  0
    1.0055  -15.2268    0.0000 O   0  0  0  0  0  0  0  0  0  0  0  0
   -0.4154  -12.7471    0.0000 C   0  0  0  0  0  0  0  0  0  0  0  0
    2.4516   -7.8127    0.0000 C   0  0  0  0  0  0  0  0  0  0  0  0
    2.4566   -6.9877    0.0000 O   0  0  0  0  0  0  0  0  0  0  0  0
   -1.1313  -13.1571    0.0000 O   0  0  0  0  0  0  0  0  0  0  0  0
    3.8625  -11.0958    0.0000 H   0  0  0  0  0  0  0  0  0  0  0  0
   -1.1288   -9.0339    0.0000 C   0  0  0  0  0  0  0  0  0  0  0  0
   -1.1229   -8.2039    0.0000 O   0  0  0  0  0  0  0  0  0  0  0  0
   -1.8315   -7.7885    0.0000 C   0  0  0  0  0  0  0  0  0  0  0  0
   -2.5502   -8.1944    0.0000 C   0  0  0  0  0  0  0  0  0  0  0  0
   -2.5557   -9.0203    0.0000 C   0  0  0  0  0  0  0  0  0  0  0  0
   -1.8426   -9.4404    0.0000 C   0  0  0  0  0  0  0  0  0  0  0  0
   -3.2733   -9.4273    0.0000 O   0  0  0  0  0  0  0  0  0  0  0  0
   -0.4167   -8.6167    0.0000 H   0  0  0  0  0  0  0  0  0  0  0  0
   -1.8486  -10.2653    0.0000 O   0  0  0  0  0  0  0  0  0  0  0  0
   -3.2613   -7.7761    0.0000 O   0  0  0  0  0  0  0  0  0  0  0  0
   10.8375   -7.1250    0.0000 O   0  0  0  0  0  0  0  0  0  0  0  0
 35 36  1  0  0  0  0 
 36 37  1  0  0  0  0 
 37 38  1  0  0  0  0 
 38 39  1  0  0  0  0 
  7  8  1  0  0  0  0 
 39 40  1  6  0  0  0 
  8 10  1  0  0  0  0 
 40 41  1  0  0  0  0 
  9 10  1  0  0  0  0 
  9 42  1  6  0  0  0 
  3  6  1  0  0  0  0 
  6 43  1  6  0  0  0 
  5  4  1  0  0  0  0 
 17 44  1  1  0  0  0 
 17 22  1  0  0  0  0 
 38 45  1  1  0  0  0 
 18 19  1  0  0  0  0 
 37 46  1  1  0  0  0 
 19 20  1  0  0  0  0 
 46 47  1  0  0  0  0 
 47 48  1  0  0  0  0 
 20 21  1  0  0  0  0 
 21 22  1  0  0  0  0 
  5  6  1  0  0  0  0 
 21 23  1  0  0  0  0 
 47 52  1  0  0  0  0 
 48 49  1  0  0  0  0 
 49 50  1  0  0  0  0 
 50 51  1  0  0  0  0 
 51 52  1  0  0  0  0 
 41 53  1  0  0  0  0 
 13 24  1  1  0  0  0 
  9 12  1  0  0  0  0 
 18 25  1  1  0  0  0 
 24 25  1  0  0  0  0 
 10 14  1  0  0  0  0 
 41 57  1  0  0  0  0 
 53 54  1  0  0  0  0 
 54 55  1  0  0  0  0 
 55 56  1  0  0  0  0 
 56 57  1  0  0  0  0 
 21 26  1  1  0  0  0 
 57 58  1  6  0  0  0 
 13 11  1  0  0  0  0 
 55 59  1  6  0  0  0 
 16 27  1  6  0  0  0 
 41 60  1  6  0  0  0 
 11 12  1  0  0  0  0 
 47 61  1  6  0  0  0 
 14 28  1  6  0  0  0 
 52 62  1  6  0  0  0 
 13 14  1  0  0  0  0 
 50 63  1  6  0  0  0 
 10 29  1  1  0  0  0 
 51 64  1  1  0  0  0 
  1  2  1  0  0  0  0 
 56 65  1  1  0  0  0 
  5 30  1  1  0  0  0 
 54 66  1  1  0  0  0 
  1  4  1  0  0  0  0 
 49 67  1  1  0  0  0 
  3 31  1  0  0  0  0 
 67 68  1  0  0  0  0 
  2  3  1  0  0  0  0 
 66 69  1  0  0  0  0 
  3 32  1  0  0  0  0 
 34 70  1  6  0  0  0 
  5  9  1  0  0  0  0 
 62 71  1  0  0  0  0 
 71 72  1  0  0  0  0 
  2 33  1  1  0  0  0 
 13 17  1  0  0  0  0 
 33 34  1  0  0  0  0 
 34 35  1  0  0  0  0 
 14 15  1  0  0  0  0 
 71 76  1  0  0  0  0 
 72 73  1  0  0  0  0 
 73 74  1  0  0  0  0 
 74 75  1  0  0  0  0 
 75 76  1  0  0  0  0 
 15 16  1  0  0  0  0 
 75 77  1  1  0  0  0 
 16 18  1  0  0  0  0 
 71 78  1  6  0  0  0 
 17 18  1  0  0  0  0 
 76 79  1  6  0  0  0 
  6  7  1  0  0  0  0 
 74 80  1  6  0  0  0 
 34 39  1  0  0  0  0 
 26 81  2  0  0  0  0 
M  END
>  <MOLREGNO>
445486

>  <CHEMBLID>
CHEMBL500261

>  <SYNONYMS>
ARDISIACRISPIN A

>  <MAX_PHASE>
0

>  <MOLWEIGHT>
1061.21

>  <ALOGP>


>  <PSA>


>  <HBA>


>  <HBD>


>  <RO5>


>  <RTB>


>  <RO3>


>  <ACD_MOST_APKA>


>  <ACD_MOST_BPKA>


>  <ACD_LOGP>


>  <ACD_LOGD>


>  <AROMATIC_RINGS>


>  <HEAVY_ATOMS>


>  <QED_WEIGHTED>


>  <HBA_LIPINSKI>


>  <HBD_LIPINSKI>


>  <NUM_LIPINSKI_RO5_VIOLATIONS>


>  <MW_MONOISOTOPIC>
1060.5454

>  <MOLECULAR_SPECIES>


>  <FULL_MOLFORMULA>
C52H84O22

$$$$

  CDK    9/16/09,9:20

 23 25  0  0  0  0  0  0  0  0999 V2000
    1.2792   -0.3515    0.0000 C   0  0  0  0  0  0  0  0  0  0  0  0
    1.2785   -1.1776    0.0000 C   0  0  0  0  0  0  0  0  0  0  0  0
    0.5598   -1.5909    0.0000 C   0  0  0  0  0  0  0  0  0  0  0  0
   -0.1546   -1.1761    0.0000 C   0  0  0  0  0  0  0  0  0  0  0  0
   -0.8697   -1.5873    0.0000 C   0  0  0  0  0  0  0  0  0  0  0  0
   -1.5820   -1.1762    0.0000 C   0  0  0  0  0  0  0  0  0  0  0  0
   -1.5813   -0.3501    0.0000 C   0  0  0  0  0  0  0  0  0  0  0  0
   -0.8663    0.0613    0.0000 C   0  0  0  0  0  0  0  0  0  0  0  0
   -0.1519   -0.3536    0.0000 C   0  0  0  0  0  0  0  0  0  0  0  0
    0.5668    0.0598    0.0000 O   0  0  0  0  0  0  0  0  0  0  0  0
    0.5591   -2.4171    0.0000 O   0  0  0  0  0  0  0  0  0  0  0  0
    1.9942    0.0598    0.0000 C   0  0  0  0  0  0  0  0  0  0  0  0
    1.9970    0.8823    0.0000 C   0  0  0  0  0  0  0  0  0  0  0  0
    2.7120    1.2936    0.0000 C   0  0  0  0  0  0  0  0  0  0  0  0
    3.4244    0.8824    0.0000 C   0  0  0  0  0  0  0  0  0  0  0  0
    3.4238    0.0563    0.0000 C   0  0  0  0  0  0  0  0  0  0  0  0
    2.7086   -0.3551    0.0000 C   0  0  0  0  0  0  0  0  0  0  0  0
    4.1395    1.2937    0.0000 O   0  0  0  0  0  0  0  0  0  0  0  0
    4.8539    0.8788    0.0000 C   0  0  0  0  0  0  0  0  0  0  0  0
   -2.2971   -1.5874    0.0000 O   0  0  0  0  0  0  0  0  0  0  0  0
   -3.0115   -1.1726    0.0000 C   0  0  0  0  0  0  0  0  0  0  0  0
   -2.2958    0.0648    0.0000 O   0  0  0  0  0  0  0  0  0  0  0  0
   -0.8703   -2.4136    0.0000 O   0  0  0  0  0  0  0  0  0  0  0  0
  1  2  2  0  0  0  0 
  2  3  1  0  0  0  0 
  3  4  1  0  0  0  0 
  4  5  1  0  0  0  0 
  5  6  2  0  0  0  0 
  6  7  1  0  0  0  0 
  7  8  2  0  0  0  0 
  8  9  1  0  0  0  0 
  4  9  2  0  0  0  0 
  9 10  1  0  0  0  0 
  1 10  1  0  0  0  0 
  3 11  2  0  0  0  0 
 12 13  1  0  0  0  0 
 13 14  2  0  0  0  0 
 14 15  1  0  0  0  0 
 15 16  2  0  0  0  0 
 16 17  1  0  0  0  0 
 12 17  2  0  0  0  0 
 18 19  1  0  0  0  0 
 15 18  1  0  0  0  0 
  1 12  1  0  0  0  0 
 20 21  1  0  0  0  0 
  6 20  1  0  0  0  0 
  7 22  1  0  0  0  0 
  5 23  1  0  0  0  0 
M  END
>  <MOLREGNO>
122460

>  <CHEMBLID>
CHEMBL78010

>  <SYNONYMS>
NSC-106403

>  <MAX_PHASE>
0

>  <MOLWEIGHT>
314.29

>  <ALOGP>
2.62

>  <PSA>
85.22

>  <HBA>
6

>  <HBD>
2

>  <RO5>
0

>  <RTB>
3

>  <RO3>
N

>  <ACD_MOST_APKA>
6.49

>  <ACD_MOST_BPKA>


>  <ACD_LOGP>
2.35

>  <ACD_LOGD>
1.14

>  <AROMATIC_RINGS>
2

>  <HEAVY_ATOMS>
23

>  <QED_WEIGHTED>
.91

>  <HBA_LIPINSKI>
6

>  <HBD_LIPINSKI>
2

>  <NUM_LIPINSKI_RO5_VIOLATIONS>
0

>  <MW_MONOISOTOPIC>
314.079

>  <MOLECULAR_SPECIES>
ACID

>  <FULL_MOLFORMULA>
C17H14O6

$$$$

  CDK    9/16/09,9:19

 40 44  0  0  0  0  0  0  0  0999 V2000
   22.4331   -6.6347    0.0000 C   0  0  0  0  0  0  0  0  0  0  0  0
   22.1739   -7.4179    0.0000 C   0  0  0  0  0  0  0  0  0  0  0  0
   22.6572   -8.0885    0.0000 O   0  0  0  0  0  0  0  0  0  0  0  0
   22.1666   -8.7526    0.0000 C   0  0  0  0  0  0  0  0  0  0  0  0
   22.4164   -9.5406    0.0000 O   0  0  0  0  0  0  0  0  0  0  0  0
   21.3834   -8.4934    0.0000 C   0  0  0  0  0  0  0  0  0  0  0  0
   20.7128   -8.9768    0.0000 C   0  0  0  0  0  0  0  0  0  0  0  0
   21.3898   -7.6690    0.0000 C   0  0  0  0  0  0  0  0  0  0  0  0
   20.6676   -7.2716    0.0000 C   0  0  0  0  0  0  0  0  0  0  0  0
   20.6512   -6.4475    0.0000 C   0  0  0  0  0  0  0  0  0  0  0  0
   21.3572   -6.0205    0.0000 O   0  0  0  0  0  0  0  0  0  0  0  0
   19.9295   -6.0463    0.0000 C   0  0  0  0  0  0  0  0  0  0  0  0
   19.2071   -5.6491    0.0000 C   0  0  0  0  0  0  0  0  0  0  0  0
   20.3266   -5.3238    0.0000 O   0  0  0  0  0  0  0  0  0  0  0  0
   19.5327   -6.7681    0.0000 C   0  0  0  0  0  0  0  0  0  0  0  0
   20.0198   -7.4360    0.0000 C   0  0  0  0  0  0  0  0  0  0  0  0
   19.5374   -8.1031    0.0000 C   0  0  0  0  0  0  0  0  0  0  0  0
   18.7477   -7.8529    0.0000 C   0  0  0  0  0  0  0  0  0  0  0  0
   18.0374   -8.2679    0.0000 C   0  0  0  0  0  0  0  0  0  0  0  0
   18.0403   -9.0929    0.0000 C   0  0  0  0  0  0  0  0  0  0  0  0
   17.3259   -9.5079    0.0000 C   0  0  0  0  0  0  0  0  0  0  0  0
   17.3287  -10.3328    0.0000 O   0  0  0  0  0  0  0  0  0  0  0  0
   16.6127   -9.0978    0.0000 C   0  0  0  0  0  0  0  0  0  0  0  0
   15.8983   -9.5128    0.0000 C   0  0  0  0  0  0  0  0  0  0  0  0
   15.1810   -9.1028    0.0000 C   0  0  0  0  0  0  0  0  0  0  0  0
   14.4707   -9.5178    0.0000 O   0  0  0  0  0  0  0  0  0  0  0  0
   15.1781   -8.2778    0.0000 C   0  0  0  0  0  0  0  0  0  0  0  0
   14.4650   -7.8678    0.0000 O   0  0  0  0  0  0  0  0  0  0  0  0
   15.8926   -7.8628    0.0000 C   0  0  0  0  0  0  0  0  0  0  0  0
   16.6099   -8.2728    0.0000 C   0  0  0  0  0  0  0  0  0  0  0  0
   16.6070   -7.4478    0.0000 C   0  0  0  0  0  0  0  0  0  0  0  0
   17.3201   -7.8579    0.0000 C   0  0  0  0  0  0  0  0  0  0  0  0
   17.3173   -7.0329    0.0000 C   0  0  0  0  0  0  0  0  0  0  0  0
   18.0317   -6.6179    0.0000 C   0  0  0  0  0  0  0  0  0  0  0  0
   18.7448   -7.0279    0.0000 C   0  0  0  0  0  0  0  0  0  0  0  0
   16.6083   -9.9208    0.0000 H   0  0  0  0  0  0  0  0  0  0  0  0
   17.3125   -8.6792    0.0000 H   0  0  0  0  0  0  0  0  0  0  0  0
   18.7417   -8.6750    0.0000 O   0  0  0  0  0  0  0  0  0  0  0  0
   18.7375   -6.2000    0.0000 C   0  0  0  0  0  0  0  0  0  0  0  0
   19.1125   -7.4792    0.0000 H   0  0  0  0  0  0  0  0  0  0  0  0
  4  6  1  0  0  0  0 
  6  7  1  1  0  0  0 
  6  8  1  0  0  0  0 
  2  8  1  0  0  0  0 
  8  9  1  6  0  0  0 
  9 10  1  0  0  0  0 
 10 11  1  6  0  0  0 
 10 12  1  0  0  0  0 
 12 13  1  0  0  0  0 
 12 14  1  1  0  0  0 
 12 15  1  0  0  0  0 
 15 16  1  0  0  0  0 
 16 17  1  0  0  0  0 
 17 18  1  0  0  0  0 
 18 19  1  0  0  0  0 
 19 20  2  0  0  0  0 
 20 21  1  0  0  0  0 
 21 22  2  0  0  0  0 
 21 23  1  0  0  0  0 
 23 24  1  0  0  0  0 
 24 25  1  0  0  0  0 
 25 26  1  1  0  0  0 
 25 27  1  0  0  0  0 
 27 28  1  1  0  0  0 
 27 29  1  0  0  0  0 
 29 30  1  0  0  0  0 
 23 30  1  0  0  0  0 
 30 31  1  1  0  0  0 
 30 32  1  0  0  0  0 
 19 32  1  0  0  0  0 
 32 33  1  0  0  0  0 
 33 34  1  0  0  0  0 
 34 35  1  0  0  0  0 
 15 35  1  0  0  0  0 
 18 35  1  0  0  0  0 
 23 36  1  1  0  0  0 
  2  1  1  1  0  0  0 
 32 37  1  6  0  0  0 
  2  3  1  0  0  0  0 
 18 38  1  6  0  0  0 
  3  4  1  0  0  0  0 
 35 39  1  1  0  0  0 
  4  5  2  0  0  0  0 
 15 40  1  6  0  0  0 
M  END
>  <MOLREGNO>
462098

>  <CHEMBLID>
CHEMBL494249

>  <SYNONYMS>
Cyasterone

>  <MAX_PHASE>
0

>  <MOLWEIGHT>
520.65

>  <ALOGP>
1.48

>  <PSA>
144.52

>  <HBA>
8

>  <HBD>
5

>  <RO5>
1

>  <RTB>
4

>  <RO3>
N

>  <ACD_MOST_APKA>


>  <ACD_MOST_BPKA>


>  <ACD_LOGP>
-.43

>  <ACD_LOGD>
-.43

>  <AROMATIC_RINGS>
0

>  <HEAVY_ATOMS>
37

>  <QED_WEIGHTED>
.35

>  <HBA_LIPINSKI>
8

>  <HBD_LIPINSKI>
5

>  <NUM_LIPINSKI_RO5_VIOLATIONS>
0

>  <MW_MONOISOTOPIC>
520.3036

>  <MOLECULAR_SPECIES>
NEUTRAL

>  <FULL_MOLFORMULA>
C29H44O8

$$$$

  CDK    9/16/09,9:20

 37 41  0  0  0  0  0  0  0  0999 V2000
   11.7585   -2.4953    0.0000 O   0  0  0  0  0  0  0  0  0  0  0  0
   18.1919   -1.2559    0.0000 O   0  0  0  0  0  0  0  0  0  0  0  0
   12.4782   -1.2440    0.0000 C   0  0  0  0  0  0  0  0  0  0  0  0
   12.4790   -2.0725    0.0000 C   0  0  0  0  0  0  0  0  0  0  0  0
   13.1950   -2.4838    0.0000 C   0  0  0  0  0  0  0  0  0  0  0  0
   13.1933   -0.8270    0.0000 C   0  0  0  0  0  0  0  0  0  0  0  0
   13.9092   -1.2426    0.0000 C   0  0  0  0  0  0  0  0  0  0  0  0
   13.9111   -2.0710    0.0000 C   0  0  0  0  0  0  0  0  0  0  0  0
   14.6220   -2.4834    0.0000 C   0  0  0  0  0  0  0  0  0  0  0  0
   15.3397   -2.0677    0.0000 C   0  0  0  0  0  0  0  0  0  0  0  0
   14.6182   -0.8265    0.0000 C   0  0  0  0  0  0  0  0  0  0  0  0
   15.3335   -1.2416    0.0000 C   0  0  0  0  0  0  0  0  0  0  0  0
   15.3396    0.4106    0.0000 C   0  0  0  0  0  0  0  0  0  0  0  0
   14.6181   -0.0012    0.0000 C   0  0  0  0  0  0  0  0  0  0  0  0
   16.0548   -0.0086    0.0000 C   0  0  0  0  0  0  0  0  0  0  0  0
   16.0451   -0.8321    0.0000 C   0  0  0  0  0  0  0  0  0  0  0  0
   16.7501   -1.2478    0.0000 C   0  0  0  0  0  0  0  0  0  0  0  0
   17.4692   -0.8487    0.0000 C   0  0  0  0  0  0  0  0  0  0  0  0
   16.7695    0.3991    0.0000 C   0  0  0  0  0  0  0  0  0  0  0  0
   17.4758   -0.0263    0.0000 C   0  0  0  0  0  0  0  0  0  0  0  0
   18.1917    0.3731    0.0000 C   0  0  0  0  0  0  0  0  0  0  0  0
   18.2078    1.1952    0.0000 C   0  0  0  0  0  0  0  0  0  0  0  0
   17.5015    1.6165    0.0000 C   0  0  0  0  0  0  0  0  0  0  0  0
   16.7793    1.2197    0.0000 C   0  0  0  0  0  0  0  0  0  0  0  0
   16.9082    2.2074    0.0000 C   0  0  0  0  0  0  0  0  0  0  0  0
   17.9072    2.3375    0.0000 C   0  0  0  0  0  0  0  0  0  0  0  0
   12.7716   -3.2003    0.0000 C   0  0  0  0  0  0  0  0  0  0  0  0
   13.9010   -0.4141    0.0000 C   0  0  0  0  0  0  0  0  0  0  0  0
   15.3248   -0.4126    0.0000 C   0  0  0  0  0  0  0  0  0  0  0  0
   16.0379   -1.6566    0.0000 C   0  0  0  0  0  0  0  0  0  0  0  0
   18.1889   -0.4347    0.0000 C   0  0  0  0  0  0  0  0  0  0  0  0
   18.9035   -0.0236    0.0000 O   0  0  0  0  0  0  0  0  0  0  0  0
   17.4659   -1.6760    0.0000 O   0  0  0  0  0  0  0  0  0  0  0  0
   14.6108   -1.6514    0.0000 H   0  0  0  0  0  0  0  0  0  0  0  0
   16.7630   -0.4275    0.0000 H   0  0  0  0  0  0  0  0  0  0  0  0
   13.4035   -3.2791    0.0000 C   0  0  0  0  0  0  0  0  0  0  0  0
   14.1196   -2.8670    0.0000 H   0  0  0  0  0  0  0  0  0  0  0  0
  3  4  1  0  0  0  0 
  3  6  1  0  0  0  0 
  4  5  1  0  0  0  0 
  5  8  1  0  0  0  0 
  7  6  1  0  0  0  0 
  7  8  1  0  0  0  0 
  7 11  1  0  0  0  0 
  8  9  1  0  0  0  0 
  9 10  1  0  0  0  0 
 10 12  1  0  0  0  0 
 11 12  1  0  0  0  0 
 11 14  1  0  0  0  0 
 12 16  1  0  0  0  0 
 15 13  2  0  0  0  0 
 13 14  1  0  0  0  0 
 15 16  1  0  0  0  0 
 15 19  1  0  0  0  0 
 16 17  1  0  0  0  0 
 17 18  1  0  0  0  0 
 18 20  1  0  0  0  0 
 19 20  1  0  0  0  0 
 19 24  1  0  0  0  0 
 20 21  1  0  0  0  0 
 21 22  1  0  0  0  0 
 22 23  1  0  0  0  0 
 23 24  1  0  0  0  0 
 23 25  1  0  0  0  0 
 23 26  1  0  0  0  0 
  5 27  1  0  0  0  0 
  7 28  1  1  0  0  0 
 12 29  1  1  0  0  0 
 16 30  1  6  0  0  0 
 20 31  1  1  0  0  0 
 31  2  1  0  0  0  0 
 31 32  2  0  0  0  0 
 18 33  1  6  0  0  0 
 11 34  1  6  0  0  0 
 19 35  1  6  0  0  0 
  5 36  1  0  0  0  0 
  8 37  1  6  0  0  0 
  4  1  1  1  0  0  0 
M  END
>  <MOLREGNO>
504053

>  <CHEMBLID>
CHEMBL464557

>  <SYNONYMS>
Echinocystic Acid

>  <MAX_PHASE>
0

>  <MOLWEIGHT>
472.7

>  <ALOGP>
5.35

>  <PSA>
77.76

>  <HBA>
4

>  <HBD>
3

>  <RO5>
1

>  <RTB>
1

>  <RO3>
N

>  <ACD_MOST_APKA>
4.43

>  <ACD_MOST_BPKA>


>  <ACD_LOGP>
7.15

>  <ACD_LOGD>
4.21

>  <AROMATIC_RINGS>
0

>  <HEAVY_ATOMS>
34

>  <QED_WEIGHTED>
.45

>  <HBA_LIPINSKI>
4

>  <HBD_LIPINSKI>
3

>  <NUM_LIPINSKI_RO5_VIOLATIONS>
1

>  <MW_MONOISOTOPIC>
472.3553

>  <MOLECULAR_SPECIES>
ACID

>  <FULL_MOLFORMULA>
C30H48O4

$$$$

  SciTegic11201309402D

 47 52  0  0  0  0            999 V2000
   -0.2685    0.5027    0.0000 O   0  0
    0.4468    0.9415    0.0000 C   0  0  1  0  0  0
    0.4247    1.7807    0.0000 C   0  0  2  0  0  0
   -0.3128    2.1810    0.0000 O   0  0
    1.1399    2.2194    0.0000 C   0  0  1  0  0  0
    1.1177    3.0587    0.0000 O   0  0
    1.8774    1.8191    0.0000 C   0  0  2  0  0  0
    2.5927    2.2579    0.0000 O   0  0
    1.8995    0.9799    0.0000 C   0  0  2  0  0  0
    1.1843    0.5412    0.0000 O   0  0
    2.6370    0.5796    0.0000 C   0  0
    2.6593   -0.2596    0.0000 O   0  0
   -2.1223   -3.8050    0.0000 O   0  0
   -2.1994   -4.6407    0.0000 C   0  0  1  0  0  0
   -1.5143   -5.1256    0.0000 C   0  0  2  0  0  0
   -0.7518   -4.7750    0.0000 O   0  0
   -1.5915   -5.9612    0.0000 C   0  0  1  0  0  0
   -0.9063   -6.4462    0.0000 O   0  0
   -2.3539   -6.3119    0.0000 C   0  0  2  0  0  0
   -2.4311   -7.1474    0.0000 O   0  0
   -3.0391   -5.8268    0.0000 C   0  0  2  0  0  0
   -2.9618   -4.9912    0.0000 O   0  0
   -3.8014   -6.1774    0.0000 C   0  0
   -4.4866   -5.6924    0.0000 O   0  0
   -3.8249   -1.5532    0.0000 C   0  0
   -3.8274   -2.3787    0.0000 C   0  0
   -3.1156   -2.7912    0.0000 C   0  0  1  0  0  0
   -3.1107   -1.1403    0.0000 C   0  0
   -2.3990   -1.5575    0.0000 C   0  0  2  0  0  0
   -2.4004   -2.3830    0.0000 C   0  0  2  0  0  0
   -1.6881   -2.7945    0.0000 C   0  0
   -0.9743   -2.3853    0.0000 C   0  0
   -1.6853   -1.1436    0.0000 C   0  0  1  0  0  0
   -0.9743   -1.5566    0.0000 C   0  0  2  0  0  0
   -0.2618   -1.1476    0.0000 C   0  0
   -0.2586   -0.3238    0.0000 C   0  0  2  0  0  0
   -0.9741    0.0892    0.0000 C   0  0
   -1.6883   -0.3216    0.0000 C   0  0
   -1.6949   -1.9606    0.0000 H   0  0
   -2.4048   -0.7366    0.0000 C   0  0
   -2.4122   -3.2037    0.0000 H   0  0
   -3.5369   -3.4989    0.0000 C   0  0
   -2.9123   -3.5846    0.0000 C   0  0
   -3.5022   -4.1585    0.0000 O   0  0
    0.4448   -0.7358    0.0000 C   0  0
   -0.2678   -1.9649    0.0000 C   0  0
    1.2378   -0.5265    0.0000 C   0  0
 23 24  1  0
 14 22  1  0
 25 26  1  0
  2 10  1  0
  2  1  1  1
  2  3  1  0
 25 28  1  0
 26 27  1  0
 27 30  1  0
 29 28  1  0
 29 30  1  0
  3  4  1  6
  3  5  1  0
  5  6  1  1
  5  7  1  0
 29 33  1  0
 30 31  1  0
 31 32  1  0
 34 32  1  6
 33 34  1  0
  7  8  1  6
  7  9  1  0
  9 10  1  0
  9 11  1  1
 11 12  1  0
 14 13  1  1
 33 38  1  0
 34 35  1  0
 35 36  1  0
 36 37  1  0
 37 38  1  0
 14 15  1  0
 33 39  1  1
 15 16  1  6
 29 40  1  6
 15 17  1  0
 30 41  1  1
 17 18  1  1
 27 42  1  1
 17 19  1  0
 27 43  1  0
 19 20  1  6
 43 44  2  0
 43 13  1  0
 36  1  1  6
 19 21  1  0
 36 45  1  0
 21 22  1  0
 34 46  1  0
 46 45  1  0
 21 23  1  1
 45 47  2  0
M  END
>  <MOLREGNO>
456368

>  <CHEMBLID>
CHEMBL499256

>  <SYNONYMS>
Rubusoside

>  <MAX_PHASE>
0

>  <MOLWEIGHT>
642.73

>  <ALOGP>
.02

>  <PSA>
215.82

>  <HBA>
13

>  <HBD>
8

>  <RO5>
3

>  <RTB>
7

>  <RO3>
N

>  <ACD_MOST_APKA>
12.14

>  <ACD_MOST_BPKA>
6.14

>  <ACD_LOGP>
3.43

>  <ACD_LOGD>
3.4

>  <AROMATIC_RINGS>
0

>  <HEAVY_ATOMS>
45

>  <QED_WEIGHTED>
.11

>  <HBA_LIPINSKI>
13

>  <HBD_LIPINSKI>
8

>  <NUM_LIPINSKI_RO5_VIOLATIONS>
2

>  <MW_MONOISOTOPIC>
642.3251

>  <MOLECULAR_SPECIES>
NEUTRAL

>  <FULL_MOLFORMULA>
C32H50O13

$$$$

          11280715072D 1   1.00000     0.00000     0

 25 27  0     0  0            999 V2000
    1.1292   -4.1917    0.0000 C   0  0  0  0  0  0           0  0  0
    1.6500   -4.4917    0.0000 C   0  0  0  0  0  0           0  0  0
    0.6042   -4.4917    0.0000 C   0  0  0  0  0  0           0  0  0
    1.1292   -3.5917    0.0000 C   0  0  0  0  0  0           0  0  0
    2.1667   -3.5917    0.0000 C   0  0  0  0  0  0           0  0  0
    2.1667   -4.1917    0.0000 C   0  0  0  0  0  0           0  0  0
    1.6500   -3.2875    0.0000 O   0  0  0  0  0  0           0  0  0
    0.0917   -4.1917    0.0000 C   0  0  0  0  0  0           0  0  0
    0.6042   -3.2917    0.0000 C   0  0  0  0  0  0           0  0  0
    0.0917   -3.5917    0.0000 C   0  0  0  0  0  0           0  0  0
    2.6917   -3.2917    0.0000 C   0  0  0  0  0  0           0  0  0
    2.6875   -2.6917    0.0000 C   0  0  0  0  0  0           0  0  0
    3.2042   -2.3917    0.0000 C   0  0  0  0  0  0           0  0  0
    1.6417   -5.0917    0.0000 O   0  0  0  0  0  0           0  0  0
    3.7292   -2.6917    0.0000 C   0  0  0  0  0  0           0  0  0
    3.2042   -3.5917    0.0000 C   0  0  0  0  0  0           0  0  0
    3.7292   -3.2917    0.0000 C   0  0  0  0  0  0           0  0  0
    0.6125   -5.0917    0.0000 O   0  0  0  0  0  0           0  0  0
   -0.4333   -4.4917    0.0000 O   0  0  0  0  0  0           0  0  0
   -0.4333   -3.2917    0.0000 O   0  0  0  0  0  0           0  0  0
    3.2042   -1.7917    0.0000 O   0  0  0  0  0  0           0  0  0
    4.2500   -2.3917    0.0000 O   0  0  0  0  0  0           0  0  0
   -0.9500   -4.1917    0.0000 C   0  0  0  0  0  0           0  0  0
    3.7250   -1.4917    0.0000 C   0  0  0  0  0  0           0  0  0
    4.7667   -2.6917    0.0000 C   0  0  0  0  0  0           0  0  0
  2  1  1  0     0  0
  3  1  2  0     0  0
  4  1  1  0     0  0
  5  7  1  0     0  0
  6  2  1  0     0  0
  7  4  1  0     0  0
  8  3  1  0     0  0
  9  4  2  0     0  0
 10  9  1  0     0  0
 11  5  1  0     0  0
 12 11  1  0     0  0
 13 12  2  0     0  0
 14  2  2  0     0  0
 15 17  2  0     0  0
 16 11  2  0     0  0
 17 16  1  0     0  0
 18  3  1  0     0  0
 19  8  1  0     0  0
 20 10  1  0     0  0
 21 13  1  0     0  0
 22 15  1  0     0  0
 23 19  1  0     0  0
 24 21  1  0     0  0
 25 22  1  0     0  0
  6  5  2  0     0  0
 10  8  2  0     0  0
 13 15  1  0     0  0
M  END
>  <MOLREGNO>
121810

>  <CHEMBLID>
CHEMBL312750

>  <SYNONYMS>


>  <MAX_PHASE>
0

>  <MOLWEIGHT>
344.32

>  <ALOGP>
2.6

>  <PSA>
94.45

>  <HBA>
7

>  <HBD>
2

>  <RO5>
0

>  <RTB>
4

>  <RO3>
N

>  <ACD_MOST_APKA>
6.47

>  <ACD_MOST_BPKA>


>  <ACD_LOGP>
2.16

>  <ACD_LOGD>
.93

>  <AROMATIC_RINGS>
2

>  <HEAVY_ATOMS>
25

>  <QED_WEIGHTED>
.88

>  <HBA_LIPINSKI>
7

>  <HBD_LIPINSKI>
2

>  <NUM_LIPINSKI_RO5_VIOLATIONS>
0

>  <MW_MONOISOTOPIC>
344.0896

>  <MOLECULAR_SPECIES>
ACID

>  <FULL_MOLFORMULA>
C18H16O7

$$$$

  SciTegic12231509382D

 47 53  0  0  0  0            999 V2000
   11.7990  -22.2582    0.0000 O   0  0
   11.8015  -21.4331    0.0000 C   0  0
   12.5180  -21.0260    0.0000 C   0  0
   12.5207  -20.2017    0.0000 C   0  0
   11.8068  -19.7862    0.0000 C   0  0
   11.0887  -20.2011    0.0000 C   0  0
   11.0894  -21.0240    0.0000 C   0  0
   11.8082  -18.9611    0.0000 C   0  0
   12.2142  -18.2410    0.0000 C   0  0  1  0  0  0
   13.0323  -16.8095    0.0000 C   0  0
   12.2062  -16.8153    0.0000 C   0  0
   11.7960  -17.5342    0.0000 N   0  0
   13.4479  -17.5227    0.0000 C   0  0
   13.0392  -18.2382    0.0000 C   0  0
   13.4544  -18.9478    0.0000 C   0  0
   14.2783  -18.9431    0.0000 C   0  0
   14.6850  -18.2229    0.0000 C   0  0
   14.2675  -17.5162    0.0000 C   0  0
   13.2303  -21.4421    0.0000 O   0  0
   13.2261  -22.2672    0.0000 C   0  0
   12.5097  -22.6728    0.0000 C   0  0
   12.5051  -23.4971    0.0000 C   0  0
   13.2180  -23.9141    0.0000 C   0  0
   13.9371  -23.5008    0.0000 C   0  0
   13.9381  -22.6778    0.0000 C   0  0
   13.2149  -24.7392    0.0000 C   0  0
   13.9279  -25.1544    0.0000 C   0  0  2  0  0  0
   13.9210  -25.9779    0.0000 N   0  0
   14.6298  -26.3930    0.0000 C   0  0
   15.3483  -25.9867    0.0000 C   0  0
   14.6400  -24.7410    0.0000 C   0  0
   15.3513  -25.1601    0.0000 C   0  0
   16.0679  -24.7537    0.0000 C   0  0
   16.0742  -23.9283    0.0000 C   0  0
   15.3581  -23.5111    0.0000 C   0  0
   14.6445  -23.9199    0.0000 C   0  0
   15.3611  -22.6860    0.0000 O   0  0
   15.5101  -18.2148    0.0000 O   0  0
   15.9156  -17.4963    0.0000 C   0  0
   16.7911  -23.5200    0.0000 O   0  0
   17.5032  -23.9367    0.0000 C   0  0
   13.2034  -26.3852    0.0000 C   0  0
   10.9709  -17.5406    0.0000 C   0  0
   14.6962  -19.6546    0.0000 O   0  0
   15.5212  -19.6483    0.0000 C   0  0
   13.0589  -25.6491    0.0000 H   0  0
   11.2143  -18.2514    0.0000 H   0  0
  2  3  2  0
 21 22  1  0
  5  6  1  0
 22 23  2  0
  9 12  1  0
 23 24  1  0
 13 10  1  0
 24 25  2  0
 25 20  1  0
 10 11  1  0
 23 26  1  0
 11 12  1  0
 27 26  1  0
 27 28  1  0
  1  2  1  0
  6  7  2  0
 13 14  2  0
 27 31  1  0
 28 29  1  0
 29 30  1  0
 30 32  1  0
  7  2  1  0
 14 15  1  0
 31 32  2  0
  3  4  1  0
 32 33  1  0
 15 16  2  0
 33 34  2  0
  5  8  1  0
 34 35  1  0
 16 17  1  0
 35 36  2  0
 36 31  1  0
 35 37  1  0
 17 18  2  0
 17 38  1  0
 18 13  1  0
 38 39  1  0
  9  8  1  0
 34 40  1  0
  3 19  1  0
 40 41  1  0
  9 14  1  0
 28 42  1  0
 19 20  1  0
 12 43  1  0
 15 37  1  0
  4  5  2  0
 16 44  1  0
 20 21  2  0
 44 45  1  0
 27 46  1  6
  9 47  1  6
M  END
>  <MOLREGNO>
443015

>  <CHEMBLID>
CHEMBL504323

>  <SYNONYMS>
Berbamine Dihydrochloride | NSC-369310

>  <MAX_PHASE>
0

>  <MOLWEIGHT>
608.72

>  <ALOGP>
6.99

>  <PSA>
72.86

>  <HBA>
8

>  <HBD>
1

>  <RO5>
2

>  <RTB>
3

>  <RO3>
N

>  <ACD_MOST_APKA>
9.95

>  <ACD_MOST_BPKA>
7.97

>  <ACD_LOGP>
.99

>  <ACD_LOGD>
.36

>  <AROMATIC_RINGS>
4

>  <HEAVY_ATOMS>
45

>  <QED_WEIGHTED>
.27

>  <HBA_LIPINSKI>
8

>  <HBD_LIPINSKI>
1

>  <NUM_LIPINSKI_RO5_VIOLATIONS>
1

>  <MW_MONOISOTOPIC>
608.2886

>  <MOLECULAR_SPECIES>
NEUTRAL

>  <FULL_MOLFORMULA>
C37H40N2O6

$$$$

  CDK    10/7/09,10:42

 43 47  0  0  0  0  0  0  0  0999 V2000
   15.9802    2.7302    0.0000 O   0  0  0  0  0  0  0  0  0  0  0  0
   15.2831    3.1621    0.0000 C   0  0  0  0  0  0  0  0  0  0  0  0
   14.5572    2.7681    0.0000 C   0  0  0  0  0  0  0  0  0  0  0  0
   13.8539    3.2036    0.0000 C   0  0  0  0  0  0  0  0  0  0  0  0
   13.1281    2.8096    0.0000 C   0  0  0  0  0  0  0  0  0  0  0  0
   13.1054    1.9843    0.0000 C   0  0  0  0  0  0  0  0  0  0  0  0
   12.3796    1.5945    0.0000 C   0  0  0  0  0  0  0  0  0  0  0  0
   11.6763    2.0258    0.0000 C   0  0  0  0  0  0  0  0  0  0  0  0
   11.7009    2.8475    0.0000 C   0  0  0  0  0  0  0  0  0  0  0  0
   12.4267    3.2414    0.0000 C   0  0  0  0  0  0  0  0  0  0  0  0
   10.9504    1.6359    0.0000 O   0  0  0  0  0  0  0  0  0  0  0  0
   15.3057    3.9918    0.0000 O   0  0  0  0  0  0  0  0  0  0  0  0
   16.7055    3.1255    0.0000 C   0  0  0  0  0  0  0  0  0  0  0  0
   17.4453    0.2356    0.0000 C   0  0  0  0  0  0  0  0  0  0  0  0
   17.4544   -0.5887    0.0000 C   0  0  0  0  0  0  0  0  0  0  0  0
   16.7430   -1.0025    0.0000 O   0  0  0  0  0  0  0  0  0  0  0  0
   16.0267   -0.6003    0.0000 C   0  0  0  0  0  0  0  0  0  0  0  0
   16.0177    0.2199    0.0000 C   0  0  0  0  0  0  0  0  0  0  0  0
   16.7249    0.6420    0.0000 C   0  0  0  0  0  0  0  0  0  0  0  0
   16.7158    1.4665    0.0000 O   0  0  0  0  0  0  0  0  0  0  0  0
   15.3014    0.6305    0.0000 C   0  0  0  0  0  0  0  0  0  0  0  0
   14.5942    0.2084    0.0000 C   0  0  0  0  0  0  0  0  0  0  0  0
   14.6032   -0.6200    0.0000 C   0  0  0  0  0  0  0  0  0  0  0  0
   15.3195   -1.0183    0.0000 C   0  0  0  0  0  0  0  0  0  0  0  0
   13.8919   -1.0380    0.0000 O   0  0  0  0  0  0  0  0  0  0  0  0
   15.2924    1.4508    0.0000 O   0  0  0  0  0  0  0  0  0  0  0  0
   18.1747   -0.9868    0.0000 C   0  0  0  0  0  0  0  0  0  0  0  0
   18.1839   -1.8154    0.0000 C   0  0  0  0  0  0  0  0  0  0  0  0
   18.9042   -2.2177    0.0000 C   0  0  0  0  0  0  0  0  0  0  0  0
   19.6114   -1.7956    0.0000 C   0  0  0  0  0  0  0  0  0  0  0  0
   19.6025   -0.9753    0.0000 C   0  0  0  0  0  0  0  0  0  0  0  0
   18.8862   -0.5730    0.0000 C   0  0  0  0  0  0  0  0  0  0  0  0
   20.3319   -2.2020    0.0000 O   0  0  0  0  0  0  0  0  0  0  0  0
   18.1567    0.6577    0.0000 O   0  0  0  0  0  0  0  0  0  0  0  0
   18.1514    1.4822    0.0000 C   0  0  0  0  0  0  0  0  0  0  0  0
   18.8646    1.8969    0.0000 C   0  0  0  0  0  0  0  0  0  0  0  0
   18.8592    2.7256    0.0000 C   0  0  0  0  0  0  0  0  0  0  0  0
   19.5684    3.1444    0.0000 O   0  0  0  0  0  0  0  0  0  0  0  0
   18.1406    3.1352    0.0000 C   0  0  0  0  0  0  0  0  0  0  0  0
   17.4274    2.7163    0.0000 C   0  0  0  0  0  0  0  0  0  0  0  0
   17.4328    1.8877    0.0000 O   0  0  0  0  0  0  0  0  0  0  0  0
   18.1353    3.9596    0.0000 O   0  0  0  0  0  0  0  0  0  0  0  0
   19.5790    1.4914    0.0000 O   0  0  0  0  0  0  0  0  0  0  0  0
  3  4  2  0  0  0  0 
  4  5  1  0  0  0  0 
  5  6  2  0  0  0  0 
  6  7  1  0  0  0  0 
  7  8  2  0  0  0  0 
 14 15  2  0  0  0  0 
 15 16  1  0  0  0  0 
 16 17  1  0  0  0  0 
 17 18  2  0  0  0  0 
 18 19  1  0  0  0  0 
 14 19  1  0  0  0  0 
 19 20  2  0  0  0  0 
 18 21  1  0  0  0  0 
 21 22  2  0  0  0  0 
 22 23  1  0  0  0  0 
 23 24  2  0  0  0  0 
 17 24  1  0  0  0  0 
 23 25  1  0  0  0  0 
 21 26  1  0  0  0  0 
 15 27  1  0  0  0  0 
 27 28  2  0  0  0  0 
 28 29  1  0  0  0  0 
 29 30  2  0  0  0  0 
 30 31  1  0  0  0  0 
 31 32  2  0  0  0  0 
 27 32  1  0  0  0  0 
 30 33  1  0  0  0  0 
 14 34  1  0  0  0  0 
  8  9  1  0  0  0  0 
  9 10  2  0  0  0  0 
  5 10  1  0  0  0  0 
  8 11  1  0  0  0  0 
  2 12  2  0  0  0  0 
  1 13  1  0  0  0  0 
  1  2  1  0  0  0  0 
  2  3  1  0  0  0  0 
 35 36  1  0  0  0  0 
 36 37  1  0  0  0  0 
 37 38  1  6  0  0  0 
 37 39  1  0  0  0  0 
 39 40  1  0  0  0  0 
 40 41  1  0  0  0  0 
 35 41  1  0  0  0  0 
 40 13  1  6  0  0  0 
 39 42  1  1  0  0  0 
 36 43  1  1  0  0  0 
 35 34  1  6  0  0  0 
M  END
>  <MOLREGNO>
393090

>  <CHEMBLID>
CHEMBL266564

>  <SYNONYMS>
Trans-Tiliroside | Tiliroside

>  <MAX_PHASE>
0

>  <MOLWEIGHT>
594.52

>  <ALOGP>
2.21

>  <PSA>
212.66

>  <HBA>
13

>  <HBD>
7

>  <RO5>
3

>  <RTB>
8

>  <RO3>
N

>  <ACD_MOST_APKA>
6.2

>  <ACD_MOST_BPKA>


>  <ACD_LOGP>
4.84

>  <ACD_LOGD>
3.23

>  <AROMATIC_RINGS>
3

>  <HEAVY_ATOMS>
43

>  <QED_WEIGHTED>
.15

>  <HBA_LIPINSKI>
13

>  <HBD_LIPINSKI>
7

>  <NUM_LIPINSKI_RO5_VIOLATIONS>
2

>  <MW_MONOISOTOPIC>
594.1373

>  <MOLECULAR_SPECIES>
ACID

>  <FULL_MOLFORMULA>
C30H26O13

$$$$

  Mrv0541 04051115152D          

 22 25  0  0  0  0            999 V2000
    0.8250   -0.7145    0.0000 C   0  0  0  0  0  0  0  0  0  0  0  0
    0.4125   -0.0000    0.0000 C   0  0  0  0  0  0  0  0  0  0  0  0
   -0.4125   -0.0000    0.0000 C   0  0  0  0  0  0  0  0  0  0  0  0
   -0.8250   -0.7145    0.0000 C   0  0  0  0  0  0  0  0  0  0  0  0
   -0.4125   -1.4290    0.0000 O   0  0  0  0  0  0  0  0  0  0  0  0
    0.4125   -1.4290    0.0000 C   0  0  0  0  0  0  0  0  0  0  0  0
   -0.8250    0.7144    0.0000 C   0  0  0  0  0  0  0  0  0  0  0  0
   -1.6500    0.7144    0.0000 C   0  0  0  0  0  0  0  0  0  0  0  0
   -2.0625   -0.0000    0.0000 C   0  0  0  0  0  0  0  0  0  0  0  0
   -1.6500   -0.7145    0.0000 C   0  0  0  0  0  0  0  0  0  0  0  0
    0.8250    0.7144    0.0000 C   0  0  0  0  0  0  0  0  0  0  0  0
    0.4125    1.4289    0.0000 O   0  0  0  0  0  0  0  0  0  0  0  0
   -0.4125    1.4289    0.0000 C   0  0  0  0  0  0  0  0  0  0  0  0
    1.6500   -0.7145    0.0000 C   0  0  0  0  0  0  0  0  0  0  0  0
    2.0625   -0.0000    0.0000 C   0  0  0  0  0  0  0  0  0  0  0  0
    1.6500    0.7144    0.0000 C   0  0  0  0  0  0  0  0  0  0  0  0
   -2.0625   -1.4290    0.0000 O   0  0  0  0  0  0  0  0  0  0  0  0
   -2.8875   -0.0000    0.0000 O   0  0  0  0  0  0  0  0  0  0  0  0
   -0.8250    2.1434    0.0000 O   0  0  0  0  0  0  0  0  0  0  0  0
    2.0625    1.4289    0.0000 O   0  0  0  0  0  0  0  0  0  0  0  0
    2.8875   -0.0000    0.0000 O   0  0  0  0  0  0  0  0  0  0  0  0
    0.8250   -2.1434    0.0000 O   0  0  0  0  0  0  0  0  0  0  0  0
  1  2  2  0  0  0  0
  1  6  1  0  0  0  0
  1 14  1  0  0  0  0
  2  3  1  0  0  0  0
 11  2  1  0  0  0  0
  3  4  2  0  0  0  0
  3  7  1  0  0  0  0
  4  5  1  0  0  0  0
 10  4  1  0  0  0  0
  6  5  1  0  0  0  0
  6 22  2  0  0  0  0
  7  8  2  0  0  0  0
 13  7  1  0  0  0  0
  8  9  1  0  0  0  0
 10  9  2  0  0  0  0
  9 18  1  0  0  0  0
 10 17  1  0  0  0  0
 11 12  1  0  0  0  0
 11 16  2  0  0  0  0
 13 12  1  0  0  0  0
 13 19  2  0  0  0  0
 14 15  2  0  0  0  0
 15 16  1  0  0  0  0
 15 21  1  0  0  0  0
 16 20  1  0  0  0  0
M  END
>  <MOLREGNO>
148

>  <CHEMBLID>
CHEMBL6246

>  <SYNONYMS>
BENZOARIC ACID | ELLAGIC ACID

>  <MAX_PHASE>
0

>  <MOLWEIGHT>
302.19

>  <ALOGP>
1.58

>  <PSA>
133.52

>  <HBA>
8

>  <HBD>
4

>  <RO5>
0

>  <RTB>
0

>  <RO3>
N

>  <ACD_MOST_APKA>
5.02

>  <ACD_MOST_BPKA>


>  <ACD_LOGP>
.24

>  <ACD_LOGD>
-3.38

>  <AROMATIC_RINGS>
2

>  <HEAVY_ATOMS>
22

>  <QED_WEIGHTED>
.33

>  <HBA_LIPINSKI>
8

>  <HBD_LIPINSKI>
4

>  <NUM_LIPINSKI_RO5_VIOLATIONS>
0

>  <MW_MONOISOTOPIC>
302.0063

>  <MOLECULAR_SPECIES>
ACID

>  <FULL_MOLFORMULA>
C14H6O8

$$$$

  SciTegic02011310442D

 28 31  0  0  0  0            999 V2000
    5.5296   -6.5678    0.0000 C   0  0  2  0  0  0
    5.2380   -7.4761    0.0000 C   0  0  2  0  0  0
    5.8678   -8.2126    0.0000 C   0  0  1  0  0  0
    6.6388   -8.2126    0.0000 C   0  0
    6.9834   -8.9013    0.0000 C   0  0
    7.7473   -8.9456    0.0000 O   0  0
    7.2293   -7.8655    0.0000 C   0  0
    7.2293   -6.9693    0.0000 C   0  0  2  0  0  0
    6.4385   -6.4000    0.0000 C   0  0
    6.5563   -5.5901    0.0000 O   0  0
    7.5209   -6.2123    0.0000 C   0  0  2  0  0  0
    7.9419   -5.4982    0.0000 C   0  0
    7.1953   -5.4530    0.0000 C   0  0  2  0  0  0
    6.5609   -5.0604    0.0000 C   0  0
    5.5296   -5.5720    0.0000 C   0  0  1  0  0  0
    4.9416   -5.1559    0.0000 C   0  0
    7.9419   -4.9035    0.0000 C   0  0
    8.4537   -5.6471    0.0000 C   0  0
    5.7266   -8.9928    0.0000 O   0  0
    4.3778   -7.3664    0.0000 C   0  0  1  0  0  0
    3.8779   -7.9285    0.0000 O   0  0
    4.1319   -6.5616    0.0000 C   0  0
    4.8445   -6.1083    0.0000 C   0  0
    3.4129   -6.2713    0.0000 C   0  0
    5.0772   -8.1297    0.0000 O   0  0
    7.1874   -4.6469    0.0000 H   0  0
    8.2904   -6.4184    0.0000 H   0  0
    8.0319   -6.9692    0.0000 H   0  0
  1  2  1  0
  2  3  1  0
  3  4  1  0
  4  5  1  0
  5  6  1  0
  4  7  2  0
  8  7  1  0
  9  8  1  0
  1  9  1  6
  9 10  2  0
  8 11  1  0
 11 12  1  0
 13 12  1  0
 11 13  1  0
 14 13  1  0
 15 14  1  0
  1 15  1  0
 15 16  1  6
 12 17  1  0
 12 18  1  0
  3 19  1  1
  2 20  1  0
 20 21  1  1
 20 22  1  0
 23 22  2  0
  1 23  1  0
 22 24  1  0
  2 25  1  1
 13 26  1  6
 11 27  1  6
  8 28  1  1
M  END
>  <MOLREGNO>
1428839

>  <CHEMBLID>
CHEMBL2165402

>  <SYNONYMS>
Ingenol

>  <MAX_PHASE>
0

>  <MOLWEIGHT>
348.43

>  <ALOGP>
.54

>  <PSA>
97.99

>  <HBA>
5

>  <HBD>
4

>  <RO5>
0

>  <RTB>
1

>  <RO3>
N

>  <ACD_MOST_APKA>
9.21

>  <ACD_MOST_BPKA>
7.08

>  <ACD_LOGP>
1.15

>  <ACD_LOGD>
1.02

>  <AROMATIC_RINGS>
0

>  <HEAVY_ATOMS>
25

>  <QED_WEIGHTED>
.52

>  <HBA_LIPINSKI>
5

>  <HBD_LIPINSKI>
4

>  <NUM_LIPINSKI_RO5_VIOLATIONS>
0

>  <MW_MONOISOTOPIC>
348.1937

>  <MOLECULAR_SPECIES>
NEUTRAL

>  <FULL_MOLFORMULA>
C20H28O5

$$$$

  SciTegic01161211212D

 19 20  0  0  0  0            999 V2000
   -5.0888   -6.8290    0.0000 C   0  0
   -5.0900   -7.6564    0.0000 C   0  0
   -4.3752   -8.0692    0.0000 C   0  0
   -3.6587   -7.6559    0.0000 C   0  0
   -3.6616   -6.8254    0.0000 C   0  0
   -4.3770   -6.4163    0.0000 C   0  0
   -2.9488   -6.4102    0.0000 C   0  0
   -2.2327   -6.8200    0.0000 C   0  0
   -1.5198   -6.4048    0.0000 C   0  0
   -0.8054   -6.8181    0.0000 C   0  0
   -0.0930   -6.4036    0.0000 C   0  0
   -0.0957   -5.5777    0.0000 C   0  0
   -0.8167   -5.1681    0.0000 C   0  0
   -1.5262   -5.5849    0.0000 C   0  0
   -5.8034   -6.4167    0.0000 O   0  0
   -4.3754   -8.8943    0.0000 O   0  0
    0.6166   -5.1615    0.0000 O   0  0
   -5.8036   -5.5917    0.0000 C   0  0
   -3.6610   -9.3068    0.0000 C   0  0
  4  5  1  0
  9 10  2  0
  2  3  1  0
 10 11  1  0
  5  6  2  0
 11 12  2  0
  6  1  1  0
 12 13  1  0
  1  2  2  0
 13 14  2  0
 14  9  1  0
  5  7  1  0
  1 15  1  0
  3  4  2  0
  3 16  1  0
  7  8  2  0
 12 17  1  0
 15 18  1  0
  8  9  1  0
 16 19  1  0
M  END
>  <MOLREGNO>
137532

>  <CHEMBLID>
CHEMBL83527

>  <SYNONYMS>
Pterostilbene | 4-(3,5-Dimethoxystyryl)Phenol | Pterostilben

>  <MAX_PHASE>
0

>  <MOLWEIGHT>
256.3

>  <ALOGP>
3.54

>  <PSA>
38.69

>  <HBA>
3

>  <HBD>
1

>  <RO5>
0

>  <RTB>
4

>  <RO3>
N

>  <ACD_MOST_APKA>
9.96

>  <ACD_MOST_BPKA>


>  <ACD_LOGP>
4.06

>  <ACD_LOGD>
4.06

>  <AROMATIC_RINGS>
2

>  <HEAVY_ATOMS>
19

>  <QED_WEIGHTED>
.85

>  <HBA_LIPINSKI>
3

>  <HBD_LIPINSKI>
1

>  <NUM_LIPINSKI_RO5_VIOLATIONS>
0

>  <MW_MONOISOTOPIC>
256.1099

>  <MOLECULAR_SPECIES>
NEUTRAL

>  <FULL_MOLFORMULA>
C16H16O3

$$$$

  CDK    9/16/09,9:20

 31 34  0  0  0  0  0  0  0  0999 V2000
   -0.5843    0.2149    0.0000 C   0  0  0  0  0  0  0  0  0  0  0  0
   -0.5874   -0.6094    0.0000 C   0  0  0  0  0  0  0  0  0  0  0  0
   -1.3044   -1.0188    0.0000 C   0  0  0  0  0  0  0  0  0  0  0  0
   -2.0181   -0.6039    0.0000 C   0  0  0  0  0  0  0  0  0  0  0  0
   -2.7308   -1.0134    0.0000 C   0  0  0  0  0  0  0  0  0  0  0  0
   -3.4445   -0.5984    0.0000 C   0  0  0  0  0  0  0  0  0  0  0  0
   -3.4414    0.2259    0.0000 C   0  0  0  0  0  0  0  0  0  0  0  0
   -2.7245    0.6353    0.0000 C   0  0  0  0  0  0  0  0  0  0  0  0
   -2.0149    0.2204    0.0000 C   0  0  0  0  0  0  0  0  0  0  0  0
   -1.2981    0.6299    0.0000 O   0  0  0  0  0  0  0  0  0  0  0  0
   -1.3075   -1.8432    0.0000 O   0  0  0  0  0  0  0  0  0  0  0  0
   -4.1551    0.6408    0.0000 O   0  0  0  0  0  0  0  0  0  0  0  0
   -2.7340   -1.8378    0.0000 O   0  0  0  0  0  0  0  0  0  0  0  0
    0.1284    0.6244    0.0000 C   0  0  0  0  0  0  0  0  0  0  0  0
    0.1315    1.4488    0.0000 C   0  0  0  0  0  0  0  0  0  0  0  0
    0.8484    1.8583    0.0000 C   0  0  0  0  0  0  0  0  0  0  0  0
    1.5622    1.4433    0.0000 C   0  0  0  0  0  0  0  0  0  0  0  0
    1.5590    0.6189    0.0000 C   0  0  0  0  0  0  0  0  0  0  0  0
    0.8421    0.2095    0.0000 C   0  0  0  0  0  0  0  0  0  0  0  0
    2.2790    1.8528    0.0000 O   0  0  0  0  0  0  0  0  0  0  0  0
    0.8515    2.6825    0.0000 O   0  0  0  0  0  0  0  0  0  0  0  0
    0.1221   -1.0243    0.0000 O   0  0  0  0  0  0  0  0  0  0  0  0
   -0.5479   -2.3305    0.0000 O   0  0  0  0  0  0  0  0  0  0  0  0
    0.1189   -1.8487    0.0000 C   0  0  0  0  0  0  0  0  0  0  0  0
    0.7862   -2.3356    0.0000 C   0  0  0  0  0  0  0  0  0  0  0  0
    0.5263   -3.1186    0.0000 C   0  0  0  0  0  0  0  0  0  0  0  0
   -0.2981   -3.1155    0.0000 C   0  0  0  0  0  0  0  0  0  0  0  0
   -0.7850   -3.7827    0.0000 C   0  0  0  0  0  0  0  0  0  0  0  0
   -0.4506   -4.5378    0.0000 O   0  0  0  0  0  0  0  0  0  0  0  0
    1.0122   -3.7896    0.0000 O   0  0  0  0  0  0  0  0  0  0  0  0
    1.5712   -2.0858    0.0000 O   0  0  0  0  0  0  0  0  0  0  0  0
  1  2  2  0  0  0  0 
  2  3  1  0  0  0  0 
  3  4  1  0  0  0  0 
  4  5  1  0  0  0  0 
  5  6  2  0  0  0  0 
  6  7  1  0  0  0  0 
  7  8  2  0  0  0  0 
  8  9  1  0  0  0  0 
  4  9  2  0  0  0  0 
  9 10  1  0  0  0  0 
  1 10  1  0  0  0  0 
  3 11  2  0  0  0  0 
  7 12  1  0  0  0  0 
  5 13  1  0  0  0  0 
 14 15  1  0  0  0  0 
 15 16  2  0  0  0  0 
 16 17  1  0  0  0  0 
 17 18  2  0  0  0  0 
 18 19  1  0  0  0  0 
 14 19  2  0  0  0  0 
 17 20  1  0  0  0  0 
 16 21  1  0  0  0  0 
  1 14  1  0  0  0  0 
 23 24  1  0  0  0  0 
 24 25  1  0  0  0  0 
 25 26  1  0  0  0  0 
 26 27  1  0  0  0  0 
 23 27  1  0  0  0  0 
 28 29  1  0  0  0  0 
 27 28  1  6  0  0  0 
 26 30  1  1  0  0  0 
 25 31  1  6  0  0  0 
 24 22  1  1  0  0  0 
  2 22  1  0  0  0  0 
M  END
>  <MOLREGNO>
445755

>  <CHEMBLID>
CHEMBL471282

>  <SYNONYMS>
Avicularin

>  <MAX_PHASE>
0

>  <MOLWEIGHT>
434.35

>  <ALOGP>
.21

>  <PSA>
186.37

>  <HBA>
11

>  <HBD>
7

>  <RO5>
2

>  <RTB>
4

>  <RO3>
N

>  <ACD_MOST_APKA>
6.17

>  <ACD_MOST_BPKA>


>  <ACD_LOGP>
.4

>  <ACD_LOGD>
-1.26

>  <AROMATIC_RINGS>
2

>  <HEAVY_ATOMS>
31

>  <QED_WEIGHTED>
.33

>  <HBA_LIPINSKI>
11

>  <HBD_LIPINSKI>
7

>  <NUM_LIPINSKI_RO5_VIOLATIONS>
2

>  <MW_MONOISOTOPIC>
434.0849

>  <MOLECULAR_SPECIES>
ACID

>  <FULL_MOLFORMULA>
C20H18O11

$$$$

  CDK    9/16/09,9:19

 38 42  0  0  0  0  0  0  0  0999 V2000
   14.9447  -10.3909    0.0000 C   0  0  0  0  0  0  0  0  0  0  0  0
   14.9447  -11.2159    0.0000 C   0  0  0  0  0  0  0  0  0  0  0  0
   15.6567  -11.6241    0.0000 C   0  0  0  0  0  0  0  0  0  0  0  0
   15.6567   -9.9743    0.0000 C   0  0  0  0  0  0  0  0  0  0  0  0
   16.3687  -10.3909    0.0000 C   0  0  0  0  0  0  0  0  0  0  0  0
   16.3652  -11.2159    0.0000 C   0  0  0  0  0  0  0  0  0  0  0  0
   17.0738  -11.6290    0.0000 C   0  0  0  0  0  0  0  0  0  0  0  0
   17.7906  -11.2219    0.0000 C   0  0  0  0  0  0  0  0  0  0  0  0
   17.0808   -9.9792    0.0000 C   0  0  0  0  0  0  0  0  0  0  0  0
   17.7942  -10.4018    0.0000 C   0  0  0  0  0  0  0  0  0  0  0  0
   17.8112   -8.7467    0.0000 C   0  0  0  0  0  0  0  0  0  0  0  0
   17.0862   -9.1524    0.0000 C   0  0  0  0  0  0  0  0  0  0  0  0
   18.5244   -9.1692    0.0000 C   0  0  0  0  0  0  0  0  0  0  0  0
   18.5109   -9.9994    0.0000 C   0  0  0  0  0  0  0  0  0  0  0  0
   19.2192  -10.4238    0.0000 C   0  0  0  0  0  0  0  0  0  0  0  0
   19.9454  -10.0228    0.0000 C   0  0  0  0  0  0  0  0  0  0  0  0
   19.2463   -8.7636    0.0000 C   0  0  0  0  0  0  0  0  0  0  0  0
   19.9601   -9.1961    0.0000 C   0  0  0  0  0  0  0  0  0  0  0  0
   20.6876   -8.7964    0.0000 C   0  0  0  0  0  0  0  0  0  0  0  0
   20.7076   -7.9625    0.0000 C   0  0  0  0  0  0  0  0  0  0  0  0
   19.9937   -7.5299    0.0000 C   0  0  0  0  0  0  0  0  0  0  0  0
   19.2599   -7.9312    0.0000 C   0  0  0  0  0  0  0  0  0  0  0  0
   15.2364  -12.3366    0.0000 C   0  0  0  0  0  0  0  0  0  0  0  0
   16.0613  -12.3366    0.0000 C   0  0  0  0  0  0  0  0  0  0  0  0
   14.2310  -11.6293    0.0000 O   0  0  0  0  0  0  0  0  0  0  0  0
   13.5159  -11.2179    0.0000 C   0  0  0  0  0  0  0  0  0  0  0  0
   13.5147  -10.3929    0.0000 O   0  0  0  0  0  0  0  0  0  0  0  0
   12.8021  -11.6314    0.0000 C   0  0  0  0  0  0  0  0  0  0  0  0
   16.3613   -9.5660    0.0000 C   0  0  0  0  0  0  0  0  0  0  0  0
   17.7862   -9.5743    0.0000 C   0  0  0  0  0  0  0  0  0  0  0  0
   17.0737  -10.8034    0.0000 H   0  0  0  0  0  0  0  0  0  0  0  0
   18.5194   -8.3411    0.0000 H   0  0  0  0  0  0  0  0  0  0  0  0
   19.2403   -9.5868    0.0000 H   0  0  0  0  0  0  0  0  0  0  0  0
   19.9527   -8.3702    0.0000 C   0  0  0  0  0  0  0  0  0  0  0  0
   18.5537   -7.5047    0.0000 C   0  0  0  0  0  0  0  0  0  0  0  0
   20.0120   -6.7104    0.0000 C   0  0  0  0  0  0  0  0  0  0  0  0
   18.5028  -10.8242    0.0000 C   0  0  0  0  0  0  0  0  0  0  0  0
   16.3571  -12.0366    0.0000 H   0  0  0  0  0  0  0  0  0  0  0  0
  6  7  1  0  0  0  0 
  7  8  1  0  0  0  0 
  8 10  1  0  0  0  0 
  9 10  1  0  0  0  0 
  3  6  1  0  0  0  0 
  5  4  1  0  0  0  0 
 17 22  1  0  0  0  0 
 18 19  1  0  0  0  0 
 19 20  1  0  0  0  0 
 20 21  2  0  0  0  0 
 21 22  1  0  0  0  0 
  5  6  1  0  0  0  0 
  3 23  1  0  0  0  0 
  3 24  1  0  0  0  0 
  9 12  1  0  0  0  0 
  2 25  1  1  0  0  0 
 10 14  1  0  0  0  0 
 25 26  1  0  0  0  0 
 13 11  1  0  0  0  0 
 26 27  2  0  0  0  0 
 11 12  1  0  0  0  0 
 26 28  1  0  0  0  0 
 13 14  1  0  0  0  0 
  5 29  1  1  0  0  0 
  1  2  1  0  0  0  0 
 10 30  1  1  0  0  0 
  1  4  1  0  0  0  0 
  9 31  1  6  0  0  0 
  2  3  1  0  0  0  0 
 13 32  1  1  0  0  0 
  5  9  1  0  0  0  0 
 17 33  1  6  0  0  0 
 13 17  1  0  0  0  0 
 18 34  1  1  0  0  0 
 14 15  1  0  0  0  0 
 22 35  1  6  0  0  0 
 15 16  1  0  0  0  0 
 21 36  1  0  0  0  0 
 16 18  1  0  0  0  0 
 14 37  1  6  0  0  0 
 17 18  1  0  0  0  0 
  6 38  1  6  0  0  0 
M  END
>  <MOLREGNO>
502776

>  <CHEMBLID>
CHEMBL500389

>  <SYNONYMS>
taraxasteryl acetate

>  <MAX_PHASE>
0

>  <MOLWEIGHT>
468.75

>  <ALOGP>
7.73

>  <PSA>
26.3

>  <HBA>
2

>  <HBD>
0

>  <RO5>
1

>  <RTB>
2

>  <RO3>
N

>  <ACD_MOST_APKA>


>  <ACD_MOST_BPKA>


>  <ACD_LOGP>
11.6

>  <ACD_LOGD>
11.6

>  <AROMATIC_RINGS>
0

>  <HEAVY_ATOMS>
34

>  <QED_WEIGHTED>
.31

>  <HBA_LIPINSKI>
2

>  <HBD_LIPINSKI>
0

>  <NUM_LIPINSKI_RO5_VIOLATIONS>
1

>  <MW_MONOISOTOPIC>
468.3967

>  <MOLECULAR_SPECIES>


>  <FULL_MOLFORMULA>
C32H52O2

$$$$

  SciTegic01161211252D

 44 49  0  0  0  0            999 V2000
   11.3050  -14.6093    0.0000 C   0  0
   11.3050  -15.4344    0.0000 C   0  0  1  0  0  0
   12.0171  -15.8428    0.0000 C   0  0
   12.0171  -14.1927    0.0000 C   0  0
   12.7291  -14.6093    0.0000 C   0  0  1  0  0  0
   12.7302  -15.4344    0.0000 C   0  0  2  0  0  0
   13.4413  -15.8437    0.0000 C   0  0
   14.1559  -15.4326    0.0000 C   0  0
   13.4392  -14.1936    0.0000 C   0  0  2  0  0  0
   14.1544  -14.6121    0.0000 C   0  0  2  0  0  0
   14.1623  -12.9576    0.0000 C   0  0
   14.8777  -13.3762    0.0000 C   0  0  1  0  0  0
   14.8695  -14.2011    0.0000 C   0  0  2  0  0  0
   15.6516  -14.4638    0.0000 C   0  0
   16.1431  -13.8012    0.0000 C   0  0  1  0  0  0
   15.6647  -13.1290    0.0000 C   0  0  2  0  0  0
   12.7217  -13.7843    0.0000 C   0  0
   12.7259  -16.2554    0.0000 H   0  0
   10.5911  -15.8480    0.0000 O   0  0
   14.8636  -15.0261    0.0000 O   0  0
   14.8719  -12.5509    0.0000 C   0  0
   15.9273  -12.3469    0.0000 C   0  0
   16.7145  -12.1043    0.0000 C   0  0
   16.7226  -11.2792    0.0000 O   0  0
   15.9404  -11.0166    0.0000 C   0  0
   15.4490  -11.6793    0.0000 C   0  0
   15.6931  -10.2294    0.0000 O   0  0
   14.1468  -13.7843    0.0000 H   0  0
   13.4343  -15.0178    0.0000 H   0  0
   13.4326  -13.3655    0.0000 C   0  0
   16.9681  -13.8092    0.0000 O   0  0
   17.3736  -14.5277    0.0000 C   0  0
   18.1986  -14.5358    0.0000 C   0  0
   16.9541  -15.2382    0.0000 O   0  0
    9.8759  -15.4365    0.0000 C   0  0  2  0  0  0
    9.8770  -14.6127    0.0000 O   0  0
    9.1660  -14.2013    0.0000 C   0  0  2  0  0  0
    8.4496  -14.6114    0.0000 C   0  0  1  0  0  0
    8.4488  -15.4374    0.0000 C   0  0  2  0  0  0
    9.1644  -15.8534    0.0000 C   0  0
   10.5883  -15.0178    0.0000 H   0  0
    9.1679  -13.3763    0.0000 C   0  0
    7.7335  -15.8485    0.0000 O   0  0
    7.7361  -14.1972    0.0000 O   0  0
 13 20  1  1
  3  6  1  0
 12 21  1  1
  5  4  1  0
 16 22  1  1
 22 23  1  0
  5  6  1  0
  9 30  1  0
 10 13  1  0
 12 11  1  0
 23 24  1  0
 24 25  1  0
 25 26  1  0
 26 22  2  0
 11 30  1  0
 25 27  2  0
 12 13  1  0
 10 28  1  1
  9 29  1  6
  1  2  1  0
  1  4  1  0
 15 31  1  1
  2  3  1  0
 31 32  1  0
  5  9  1  0
 32 33  1  0
 13 14  1  0
 32 34  2  0
 14 15  1  0
 19 35  1  0
 35 36  1  0
 15 16  1  0
 16 12  1  0
  6  7  1  0
  5 17  1  1
  7  8  1  0
 35 40  1  0
 36 37  1  0
 37 38  1  0
 38 39  1  0
 39 40  1  0
  6 18  1  1
 35 41  1  6
  8 10  1  0
 37 42  1  6
  2 19  1  1
 39 43  1  6
  9 10  1  0
 38 44  1  1
M  END
>  <MOLREGNO>
610501

>  <CHEMBLID>
CHEMBL1075789

>  <SYNONYMS>
Oleandrin

>  <MAX_PHASE>
0

>  <MOLWEIGHT>
562.69

>  <ALOGP>
2.37

>  <PSA>
131.75

>  <HBA>
9

>  <HBD>
3

>  <RO5>
1

>  <RTB>
5

>  <RO3>
N

>  <ACD_MOST_APKA>
13.68

>  <ACD_MOST_BPKA>


>  <ACD_LOGP>
2.26

>  <ACD_LOGD>
2.26

>  <AROMATIC_RINGS>
0

>  <HEAVY_ATOMS>
40

>  <QED_WEIGHTED>
.34

>  <HBA_LIPINSKI>
9

>  <HBD_LIPINSKI>
3

>  <NUM_LIPINSKI_RO5_VIOLATIONS>
0

>  <MW_MONOISOTOPIC>
562.3142

>  <MOLECULAR_SPECIES>
NEUTRAL

>  <FULL_MOLFORMULA>
C31H46O9

$$$$

  CDK    9/16/09,10:2

 33 35  0  0  0  0  0  0  0  0999 V2000
   -0.4529   -2.2353    0.0000 N   0  0  0  0  0  0  0  0  0  0  0  0
    0.2631   -2.6451    0.0000 C   0  0  0  0  0  0  0  0  0  0  0  0
    0.9760   -2.2299    0.0000 C   0  0  0  0  0  0  0  0  0  0  0  0
    0.2662   -3.4701    0.0000 O   0  0  0  0  0  0  0  0  0  0  0  0
    1.6920   -2.6397    0.0000 C   0  0  0  0  0  0  0  0  0  0  0  0
    0.9729   -1.4049    0.0000 N   0  0  0  0  0  0  0  0  0  0  0  0
    1.6858   -0.9897    0.0000 C   0  0  0  0  0  0  0  0  0  0  0  0
    1.6827   -0.1647    0.0000 C   0  0  0  0  0  0  0  0  0  0  0  0
    2.4018   -1.3995    0.0000 O   0  0  0  0  0  0  0  0  0  0  0  0
    2.3957    0.2480    0.0000 C   0  0  0  0  0  0  0  0  0  0  0  0
    2.3929    1.0722    0.0000 C   0  0  0  0  0  0  0  0  0  0  0  0
    1.6763    1.4829    0.0000 C   0  0  0  0  0  0  0  0  0  0  0  0
    0.9611    1.0632    0.0000 C   0  0  0  0  0  0  0  0  0  0  0  0
    0.9673    0.2404    0.0000 C   0  0  0  0  0  0  0  0  0  0  0  0
    1.6951   -3.4647    0.0000 C   0  0  0  0  0  0  0  0  0  0  0  0
    0.9822   -3.8776    0.0000 C   0  0  0  0  0  0  0  0  0  0  0  0
    0.9849   -4.7018    0.0000 C   0  0  0  0  0  0  0  0  0  0  0  0
    1.7015   -5.1124    0.0000 C   0  0  0  0  0  0  0  0  0  0  0  0
    2.4167   -4.6928    0.0000 C   0  0  0  0  0  0  0  0  0  0  0  0
    2.4105   -3.8699    0.0000 C   0  0  0  0  0  0  0  0  0  0  0  0
   -1.1659   -2.6505    0.0000 C   0  0  0  0  0  0  0  0  0  0  0  0
   -1.8819   -2.2407    0.0000 C   0  0  0  0  0  0  0  0  0  0  0  0
   -1.1627   -3.4755    0.0000 C   0  0  0  0  0  0  0  0  0  0  0  0
   -1.8757   -3.8907    0.0000 C   0  0  0  0  0  0  0  0  0  0  0  0
   -2.5888   -3.4801    0.0000 C   0  0  0  0  0  0  0  0  0  0  0  0
   -3.3012   -3.8946    0.0000 C   0  0  0  0  0  0  0  0  0  0  0  0
   -3.2986   -4.7205    0.0000 C   0  0  0  0  0  0  0  0  0  0  0  0
   -2.5775   -5.1301    0.0000 C   0  0  0  0  0  0  0  0  0  0  0  0
   -1.8681   -4.7132    0.0000 C   0  0  0  0  0  0  0  0  0  0  0  0
   -2.5948   -2.6559    0.0000 O   0  0  0  0  0  0  0  0  0  0  0  0
   -3.3108   -2.2461    0.0000 C   0  0  0  0  0  0  0  0  0  0  0  0
   -4.0237   -2.6613    0.0000 C   0  0  0  0  0  0  0  0  0  0  0  0
   -3.3139   -1.4211    0.0000 O   0  0  0  0  0  0  0  0  0  0  0  0
 16 17  1  0  0  0  0 
  7  9  2  0  0  0  0 
 17 18  2  0  0  0  0 
  3  5  1  0  0  0  0 
 18 19  1  0  0  0  0 
  8 10  2  0  0  0  0 
 19 20  2  0  0  0  0 
 20 15  1  0  0  0  0 
  2  3  1  0  0  0  0 
  1 21  1  0  0  0  0 
 10 11  1  0  0  0  0 
 21 22  1  0  0  0  0 
  3  6  1  0  0  0  0 
 21 23  1  0  0  0  0 
 11 12  2  0  0  0  0 
 23 24  1  0  0  0  0 
  1  2  1  0  0  0  0 
 24 25  2  0  0  0  0 
 12 13  1  0  0  0  0 
 25 26  1  0  0  0  0 
  6  7  1  0  0  0  0 
 26 27  2  0  0  0  0 
 13 14  2  0  0  0  0 
 27 28  1  0  0  0  0 
 14  8  1  0  0  0  0 
 28 29  2  0  0  0  0 
 29 24  1  0  0  0  0 
  2  4  2  0  0  0  0 
 22 30  1  0  0  0  0 
  5 15  1  0  0  0  0 
 30 31  1  0  0  0  0 
  7  8  1  0  0  0  0 
 31 32  1  0  0  0  0 
 15 16  2  0  0  0  0 
 31 33  2  0  0  0  0 
M  END
>  <MOLREGNO>
458494

>  <CHEMBLID>
CHEMBL473971

>  <SYNONYMS>
Aurantiamide Acetate

>  <MAX_PHASE>
0

>  <MOLWEIGHT>
444.52

>  <ALOGP>
3.91

>  <PSA>
84.5

>  <HBA>
4

>  <HBD>
2

>  <RO5>
0

>  <RTB>
11

>  <RO3>
N

>  <ACD_MOST_APKA>
13.3

>  <ACD_MOST_BPKA>


>  <ACD_LOGP>
3.78

>  <ACD_LOGD>
3.78

>  <AROMATIC_RINGS>
3

>  <HEAVY_ATOMS>
33

>  <QED_WEIGHTED>
.44

>  <HBA_LIPINSKI>
6

>  <HBD_LIPINSKI>
2

>  <NUM_LIPINSKI_RO5_VIOLATIONS>
0

>  <MW_MONOISOTOPIC>
444.2049

>  <MOLECULAR_SPECIES>
NEUTRAL

>  <FULL_MOLFORMULA>
C27H28N2O4

$$$$

  SciTegic01161211232D

 19 21  0  0  0  0            999 V2000
    3.6855    0.7450    0.0000 C   0  0
    3.6844   -0.0814    0.0000 C   0  0
    4.3983   -0.4938    0.0000 C   0  0
    4.3965    1.1571    0.0000 C   0  0
    5.1110    0.7485    0.0000 C   0  0
    5.1144   -0.0835    0.0000 C   0  0
    5.8327   -0.4943    0.0000 C   0  0
    6.5521   -0.0776    0.0000 C   0  0
    6.5487    0.7544    0.0000 C   0  0  2  0  0  0
    5.8258    1.1698    0.0000 O   0  0
    2.9719    1.1567    0.0000 O   0  0
    5.8349   -1.3182    0.0000 O   0  0
    7.2635    1.1662    0.0000 C   0  0
    7.9786    0.7547    0.0000 C   0  0
    8.6904    1.1682    0.0000 C   0  0
    8.6883    1.9931    0.0000 C   0  0
    7.9684    2.4026    0.0000 C   0  0
    7.2596    1.9868    0.0000 C   0  0
    4.3968   -1.3177    0.0000 O   0  0
  7  8  1  0
  8  9  1  0
  9 10  1  0
  5  6  1  0
  1 11  1  0
  7 12  2  0
  2  3  1  0
  3  6  2  0
 13 14  2  0
  1  2  2  0
 14 15  1  0
  5  4  2  0
 15 16  2  0
  4  1  1  0
 16 17  1  0
  5 10  1  0
 17 18  2  0
 18 13  1  0
  9 13  1  6
  6  7  1  0
  3 19  1  0
M  END
>  <MOLREGNO>
418570

>  <CHEMBLID>
CHEMBL399910

>  <SYNONYMS>
NSC-43318 | (2S)-Pinocembrin

>  <MAX_PHASE>
0

>  <MOLWEIGHT>
256.25

>  <ALOGP>
2.62

>  <PSA>
66.76

>  <HBA>
4

>  <HBD>
2

>  <RO5>
0

>  <RTB>
1

>  <RO3>
N

>  <ACD_MOST_APKA>
7.5

>  <ACD_MOST_BPKA>


>  <ACD_LOGP>
3.23

>  <ACD_LOGD>
2.82

>  <AROMATIC_RINGS>
2

>  <HEAVY_ATOMS>
19

>  <QED_WEIGHTED>
.82

>  <HBA_LIPINSKI>
4

>  <HBD_LIPINSKI>
2

>  <NUM_LIPINSKI_RO5_VIOLATIONS>
0

>  <MW_MONOISOTOPIC>
256.0736

>  <MOLECULAR_SPECIES>
NEUTRAL

>  <FULL_MOLFORMULA>
C15H12O4

$$$$

  SciTegic01161211222D

 21 23  0  0  0  0            999 V2000
    1.9964  -21.3432    0.0000 C   0  0
    1.9952  -22.1697    0.0000 C   0  0
    2.7092  -22.5822    0.0000 C   0  0
    2.7074  -20.9310    0.0000 C   0  0
    3.4221  -21.3397    0.0000 C   0  0
    3.4255  -22.1718    0.0000 C   0  0
    4.1439  -22.5827    0.0000 C   0  0
    4.8635  -22.1659    0.0000 C   0  0
    4.8601  -21.3338    0.0000 C   0  0
    4.1371  -20.9183    0.0000 O   0  0
    5.5714  -20.9198    0.0000 C   0  0
    6.2866  -21.3314    0.0000 C   0  0
    6.9985  -20.9178    0.0000 C   0  0
    6.9964  -20.0928    0.0000 C   0  0
    6.2765  -19.6832    0.0000 C   0  0
    5.5675  -20.0991    0.0000 C   0  0
    4.1462  -23.4068    0.0000 O   0  0
    2.7078  -23.4063    0.0000 O   0  0
    1.2826  -20.9314    0.0000 O   0  0
    1.2824  -20.1073    0.0000 C   0  0
    7.7084  -19.6777    0.0000 O   0  0
  9 10  1  0
  5  6  1  0
 11 12  2  0
  2  3  1  0
 12 13  1  0
  3  6  2  0
 13 14  2  0
  1  2  2  0
 14 15  1  0
  5  4  2  0
 15 16  2  0
 16 11  1  0
  9 11  1  0
  4  1  1  0
  7 17  2  0
  5 10  1  0
  3 18  1  0
  6  7  1  0
  1 19  1  0
  7  8  1  0
 19 20  1  0
  8  9  2  0
 14 21  1  0
M  END
>  <MOLREGNO>
348442

>  <CHEMBLID>
CHEMBL210635

>  <SYNONYMS>
Genkwanin | 7-O-Methylapigenin | Gonkwanin

>  <MAX_PHASE>
0

>  <MOLWEIGHT>
284.26

>  <ALOGP>
2.64

>  <PSA>
75.99

>  <HBA>
5

>  <HBD>
2

>  <RO5>
0

>  <RTB>
2

>  <RO3>
N

>  <ACD_MOST_APKA>
6.36

>  <ACD_MOST_BPKA>


>  <ACD_LOGP>
3.13

>  <ACD_LOGD>
2.05

>  <AROMATIC_RINGS>
2

>  <HEAVY_ATOMS>
21

>  <QED_WEIGHTED>
.89

>  <HBA_LIPINSKI>
5

>  <HBD_LIPINSKI>
2

>  <NUM_LIPINSKI_RO5_VIOLATIONS>
0

>  <MW_MONOISOTOPIC>
284.0685

>  <MOLECULAR_SPECIES>
ACID

>  <FULL_MOLFORMULA>
C16H12O5

$$$$

  SciTegic12231509382D

 24 28  0  0  0  0            999 V2000
   10.7690  -20.9495    0.0000 C   0  0
   10.7672  -19.2961    0.0000 C   0  0
   11.4828  -19.7053    0.0000 C   0  0
   11.4816  -20.5340    0.0000 C   0  0
   12.9148  -19.7073    0.0000 C   0  0
   12.1971  -19.2897    0.0000 C   0  0
   12.9136  -20.5360    0.0000 N   0  3
   12.1953  -20.9437    0.0000 C   0  0
   12.1902  -21.7677    0.0000 C   0  0
   13.6233  -20.9497    0.0000 C   0  0
   13.6217  -21.7725    0.0000 C   0  0
   12.9037  -22.1822    0.0000 C   0  0
   12.9006  -23.0071    0.0000 C   0  0
   13.6146  -23.4232    0.0000 C   0  0
   14.3334  -23.0084    0.0000 C   0  0
   14.3331  -22.1849    0.0000 C   0  0
   15.0480  -21.7728    0.0000 O   0  0
   15.0482  -23.4209    0.0000 O   0  0
   10.0541  -20.5365    0.0000 C   0  0
   10.0507  -19.7120    0.0000 C   0  0
    9.2655  -19.4604    0.0000 O   0  0
    8.7836  -20.1294    0.0000 C   0  0
    9.2709  -20.7944    0.0000 O   0  0
   15.0482  -24.2461    0.0000 C   0  0
 10  7  1  0
 19  1  1  0
  1  4  2  0
 11 12  1  0
 12 13  1  0
  3  6  1  0
 13 14  2  0
  4  8  1  0
 14 15  1  0
  7  5  1  0
 15 16  2  0
 16 11  1  0
  5  6  1  0
 16 17  1  0
  3  2  2  0
 15 18  1  0
 19 20  2  0
  2 20  1  0
  7  8  2  0
  3  4  1  0
  8  9  1  0
  9 12  2  0
 20 21  1  0
 21 22  1  0
 22 23  1  0
 23 19  1  0
 18 24  1  0
 11 10  2  0
M  CHG  1   7   1
M  END
>  <MOLREGNO>
341632

>  <CHEMBLID>
CHEMBL203135

>  <SYNONYMS>
Berberrubine | Beberrubine Chloride | Berberrubine Chloride

>  <MAX_PHASE>
0

>  <MOLWEIGHT>
322.33

>  <ALOGP>
3.74

>  <PSA>
51.8

>  <HBA>
4

>  <HBD>
1

>  <RO5>
0

>  <RTB>
1

>  <RO3>
N

>  <ACD_MOST_APKA>
4.65

>  <ACD_MOST_BPKA>


>  <ACD_LOGP>
-.29

>  <ACD_LOGD>
.31

>  <AROMATIC_RINGS>
3

>  <HEAVY_ATOMS>
24

>  <QED_WEIGHTED>
.69

>  <HBA_LIPINSKI>
5

>  <HBD_LIPINSKI>
1

>  <NUM_LIPINSKI_RO5_VIOLATIONS>
0

>  <MW_MONOISOTOPIC>
322.1079

>  <MOLECULAR_SPECIES>
ACID

>  <FULL_MOLFORMULA>
C19H16NO4

$$$$

  CDK    10/7/09,10:42

 25 29  0  0  0  0  0  0  0  0999 V2000
    1.3116   -6.3692    0.0000 C   0  0  0  0  0  0  0  0  0  0  0  0
    1.3104   -7.1969    0.0000 C   0  0  0  0  0  0  0  0  0  0  0  0
    2.0255   -7.6100    0.0000 C   0  0  0  0  0  0  0  0  0  0  0  0
    2.0237   -5.9563    0.0000 C   0  0  0  0  0  0  0  0  0  0  0  0
    2.7394   -6.3656    0.0000 C   0  0  0  0  0  0  0  0  0  0  0  0
    2.7382   -7.1944    0.0000 C   0  0  0  0  0  0  0  0  0  0  0  0
    3.4515   -7.6075    0.0000 C   0  0  0  0  0  0  0  0  0  0  0  0
    3.4538   -5.9499    0.0000 C   0  0  0  0  0  0  0  0  0  0  0  0
    2.0213   -5.1310    0.0000 O   0  0  0  0  0  0  0  0  0  0  0  0
    2.7348   -4.7161    0.0000 C   0  0  0  0  0  0  0  0  0  0  0  0
    0.5967   -5.9567    0.0000 O   0  0  0  0  0  0  0  0  0  0  0  0
    0.5965   -5.1314    0.0000 C   0  0  0  0  0  0  0  0  0  0  0  0
    4.1716   -6.3676    0.0000 N   0  0  0  0  0  0  0  0  0  0  0  0
    4.1682   -7.1944    0.0000 C   0  0  0  0  0  0  0  0  0  0  0  0
    5.6004   -6.3736    0.0000 C   0  0  0  0  0  0  0  0  0  0  0  0
    4.8855   -5.9549    0.0000 C   0  0  0  0  0  0  0  0  0  0  0  0
    5.5969   -7.2004    0.0000 C   0  0  0  0  0  0  0  0  0  0  0  0
    4.8792   -7.6034    0.0000 C   0  0  0  0  0  0  0  0  0  0  0  0
    4.8704   -8.4246    0.0000 C   0  0  0  0  0  0  0  0  0  0  0  0
    6.3023   -7.6158    0.0000 C   0  0  0  0  0  0  0  0  0  0  0  0
    6.2971   -8.4357    0.0000 C   0  0  0  0  0  0  0  0  0  0  0  0
    5.5812   -8.8456    0.0000 C   0  0  0  0  0  0  0  0  0  0  0  0
    5.7498   -9.6530    0.0000 O   0  0  0  0  0  0  0  0  0  0  0  0
    6.5699   -9.7423    0.0000 C   0  0  0  0  0  0  0  0  0  0  0  0
    6.9080   -8.9899    0.0000 O   0  0  0  0  0  0  0  0  0  0  0  0
 11 12  1  0  0  0  0 
 13 14  1  0  0  0  0 
  2  3  1  0  0  0  0 
  3  6  2  0  0  0  0 
  1  2  2  0  0  0  0 
  5  8  1  0  0  0  0 
 13 16  1  0  0  0  0 
 14 18  1  0  0  0  0 
 17 15  1  0  0  0  0 
 15 16  1  0  0  0  0 
  6  7  1  0  0  0  0 
  7 14  2  0  0  0  0 
 17 18  2  0  0  0  0 
 13  8  1  0  0  0  0 
 18 19  1  0  0  0  0 
 19 22  2  0  0  0  0 
  5  4  2  0  0  0  0 
 21 20  2  0  0  0  0 
 20 17  1  0  0  0  0 
 21 22  1  0  0  0  0 
  4  9  1  0  0  0  0 
  4  1  1  0  0  0  0 
  9 10  1  0  0  0  0 
  5  6  1  0  0  0  0 
  1 11  1  0  0  0  0 
 22 23  1  0  0  0  0 
 23 24  1  0  0  0  0 
 24 25  1  0  0  0  0 
 25 21  1  0  0  0  0 
M  END
>  <MOLREGNO>
9349

>  <CHEMBLID>
CHEMBL11848

>  <SYNONYMS>
Dihydroberberine

>  <MAX_PHASE>
0

>  <MOLWEIGHT>
337.37

>  <ALOGP>
3.15

>  <PSA>
40.16

>  <HBA>
5

>  <HBD>
0

>  <RO5>
0

>  <RTB>
2

>  <RO3>
N

>  <ACD_MOST_APKA>


>  <ACD_MOST_BPKA>
3.08

>  <ACD_LOGP>
3.99

>  <ACD_LOGD>
3.99

>  <AROMATIC_RINGS>
2

>  <HEAVY_ATOMS>
25

>  <QED_WEIGHTED>
.84

>  <HBA_LIPINSKI>
5

>  <HBD_LIPINSKI>
0

>  <NUM_LIPINSKI_RO5_VIOLATIONS>
0

>  <MW_MONOISOTOPIC>
337.1314

>  <MOLECULAR_SPECIES>
NEUTRAL

>  <FULL_MOLFORMULA>
C20H19NO4

$$$$

  SciTegic12231509382D

 32 34  0  0  1  0            999 V2000
    1.4792   -7.3000    0.0000 N   0  0
    2.7292   -7.3000    0.0000 C   0  0
    2.1042   -6.2292    0.0000 N   0  0
    2.1042   -7.6542    0.0000 C   0  0
    2.7292   -6.5875    0.0000 C   0  0
    1.4792   -6.5875    0.0000 C   0  0
    3.3542   -7.6542    0.0000 N   0  0
    5.2292   -4.5042    0.0000 C   0  0
    3.3542   -6.2292    0.0000 N   0  0
    5.8375   -4.1917    0.0000 N   0  0
    5.1750   -2.9750    0.0000 C   0  0
    5.8042   -3.3042    0.0000 C   0  0  2  0  0  0
    5.2167   -5.2042    0.0000 C   0  0
    3.9750   -7.3000    0.0000 C   0  0
    2.1042   -8.3625    0.0000 O   0  0
    7.6042   -2.9042    0.0000 C   0  0
    4.5792   -3.3500    0.0000 O   0  0
    4.6417   -4.1625    0.0000 O   0  0
    5.1625   -2.2792    0.0000 O   0  0
    0.8542   -6.2292    0.0000 N   0  0
    5.2125   -7.3000    0.0000 N   0  0
    7.5917   -2.2167    0.0000 O   0  0
    3.9750   -6.5875    0.0000 C   0  0
    6.4042   -2.9417    0.0000 C   0  0
    5.8167   -5.5542    0.0000 C   0  0
    4.6042   -5.5542    0.0000 C   0  0
    4.6000   -7.6542    0.0000 C   0  0
    5.2125   -6.6042    0.0000 C   0  0
    7.0042   -3.2792    0.0000 C   0  0
    8.2042   -3.2625    0.0000 O   0  0
    5.8167   -6.2667    0.0000 C   0  0
    4.6042   -6.2417    0.0000 C   0  0
  2  4  1  0
  3  6  1  0
  4  1  1  0
  5  3  1  0
  6  1  2  0
  7  2  1  0
  8 13  1  0
  9  5  1  0
 10  8  1  0
 11 12  1  0
 12 10  1  6
 13 26  1  0
 14  7  2  0
 15  4  2  0
 16 29  1  0
 17 11  1  0
 18  8  2  0
 19 11  2  0
 20  6  1  0
 21 27  1  0
 22 16  2  0
 23  9  2  0
 24 12  1  0
 25 31  1  0
 26 32  2  0
 27 14  1  0
 28 21  1  0
 29 24  1  0
 30 16  1  0
 31 28  2  0
 32 28  1  0
  5  2  2  0
 23 14  1  0
 25 13  2  0
M  END
>  <MOLREGNO>
469217

>  <CHEMBLID>
CHEMBL1622

>  <SYNONYMS>
FOLACIN | FOLATE SODIUM | FOLIC ACID | FOLVITE | PTEROYLGLUTAMIC ACID | Vitamin Bc | FOLICET | Vitamin M

>  <MAX_PHASE>
4

>  <MOLWEIGHT>
441.4

>  <ALOGP>
-.23

>  <PSA>
208.99

>  <HBA>
12

>  <HBD>
6

>  <RO5>
2

>  <RTB>
9

>  <RO3>
N

>  <ACD_MOST_APKA>


>  <ACD_MOST_BPKA>
8.82

>  <ACD_LOGP>
2.5

>  <ACD_LOGD>
1.07

>  <AROMATIC_RINGS>
2

>  <HEAVY_ATOMS>
32

>  <QED_WEIGHTED>
.3

>  <HBA_LIPINSKI>
13

>  <HBD_LIPINSKI>
7

>  <NUM_LIPINSKI_RO5_VIOLATIONS>
2

>  <MW_MONOISOTOPIC>
441.1397

>  <MOLECULAR_SPECIES>
BASE

>  <FULL_MOLFORMULA>
C19H19N7O6

$$$$

  SciTegic01161211252D

 24 27  0  0  0  0            999 V2000
    5.2230   -5.3095    0.0000 C   0  0
    4.7388   -5.9775    0.0000 C   0  0  2  0  0  0
    5.2230   -6.6496    0.0000 C   0  0
    6.0091   -5.5662    0.0000 C   0  0
    6.0065   -6.3911    0.0000 C   0  0
    7.4308   -5.5651    0.0000 C   0  0
    6.7189   -5.1539    0.0000 C   0  0
    6.7212   -6.8042    0.0000 C   0  0
    7.4322   -6.3931    0.0000 C   0  0
    8.2048   -6.6928    0.0000 C   0  0  1  0  0  0
    6.6011   -7.6241    0.0000 C   0  0
    8.4570   -7.4789    0.0000 C   0  0  1  0  0  0
    7.1708   -8.2307    0.0000 C   0  0
    7.9955   -8.1613    0.0000 C   0  0
    5.8172   -7.8720    0.0000 C   0  0
    4.9689   -7.4316    0.0000 O   0  0
    9.0261   -6.6893    0.0000 C   0  0
    9.6103   -6.1009    0.0000 C   0  0
    9.8481   -6.6893    0.0000 C   0  0
    8.6672   -8.2707    0.0000 H   0  0
    8.4169   -5.8922    0.0000 H   0  0
    8.1414   -5.1506    0.0000 C   0  0
    6.7179   -4.3320    0.0000 O   0  0
    3.9168   -5.9775    0.0000 C   0  0
  5  8  1  0
 10 12  1  0
  1  2  1  0
 11 13  1  0
  9  6  1  0
 12 14  1  0
 13 14  1  0
  2  3  1  0
 11 15  2  0
  6  7  2  0
  3 16  2  0
  7  4  1  0
 10 17  1  0
 12 17  1  0
  3  5  1  0
 17 18  1  0
 17 19  1  0
  8  9  2  0
 12 20  1  1
  4  1  1  0
 10 21  1  1
  9 10  1  0
  6 22  1  0
  4  5  2  0
  7 23  1  0
  8 11  1  0
  2 24  1  6
M  END
>  <MOLREGNO>
615000

>  <CHEMBLID>
CHEMBL1087305

>  <SYNONYMS>
JATROPHOLONE B

>  <MAX_PHASE>
0

>  <MOLWEIGHT>
296.4

>  <ALOGP>
4.76

>  <PSA>
37.29

>  <HBA>
2

>  <HBD>
1

>  <RO5>
0

>  <RTB>
0

>  <RO3>
N

>  <ACD_MOST_APKA>
9.48

>  <ACD_MOST_BPKA>


>  <ACD_LOGP>
5.1

>  <ACD_LOGD>
5.1

>  <AROMATIC_RINGS>
1

>  <HEAVY_ATOMS>
22

>  <QED_WEIGHTED>
.75

>  <HBA_LIPINSKI>
2

>  <HBD_LIPINSKI>
1

>  <NUM_LIPINSKI_RO5_VIOLATIONS>
0

>  <MW_MONOISOTOPIC>
296.1776

>  <MOLECULAR_SPECIES>
NEUTRAL

>  <FULL_MOLFORMULA>
C20H24O2

$$$$

  SciTegic11201309402D

 48 53  0  0  0  0            999 V2000
    2.9167  -17.4042    0.0000 C   0  0  1  0  0  0
    3.6250  -16.9875    0.0000 C   0  0  1  0  0  0
    2.9208  -18.2292    0.0000 C   0  0
    1.5000  -18.2375    0.0000 C   0  0
    2.2083  -18.6417    0.0000 C   0  0
    1.4917  -17.4125    0.0000 C   0  0
    5.4250  -16.5708    0.0000 C   0  0  2  0  0  0
    2.2000  -16.9958    0.0000 O   0  0
    0.0667  -17.4167    0.0000 C   0  0
    0.0708  -18.2417    0.0000 C   0  0
    4.0333  -16.2708    0.0000 O   0  0
    0.7792  -18.6500    0.0000 C   0  0
    0.7792  -17.0000    0.0000 C   0  0
    3.6292  -18.6333    0.0000 C   0  0
    4.3375  -17.3958    0.0000 C   0  0
    4.8292  -16.0542    0.0000 C   0  0
    4.3417  -18.2208    0.0000 C   0  0  1  0  0  0
    5.4250  -17.6042    0.0000 C   0  0
   -0.6458  -18.6500    0.0000 C   0  0
   -0.6458  -17.0000    0.0000 O   0  0
    3.6167  -16.1625    0.0000 C   0  0
    2.9000  -15.7542    0.0000 C   0  0
    0.7750  -16.1750    0.0000 C   0  0
    3.6042  -14.5125    0.0000 C   0  0
    2.8917  -14.9292    0.0000 C   0  0
   -1.3542  -18.2417    0.0000 C   0  0
   -1.3542  -17.4167    0.0000 C   0  0  1  0  0  0
    0.0583  -15.7625    0.0000 C   0  0
    2.2125  -19.4667    0.0000 O   0  0
    5.0542  -16.9792    0.0000 O   0  0
    4.3208  -14.9208    0.0000 O   0  0
    0.0583  -14.9375    0.0000 C   0  0
   -3.8208  -18.8625    0.0000 C   0  0
   -3.4125  -18.1417    0.0000 C   0  0
    0.7792  -19.4750    0.0000 O   0  0
    3.6000  -13.6875    0.0000 O   0  0
    5.4125  -15.4667    0.0000 C   0  0
    4.4125  -15.3375    0.0000 C   0  0
   -2.5875  -18.1375    0.0000 C   0  0
   -2.1792  -17.4208    0.0000 C   0  0
    2.1750  -14.5208    0.0000 C   0  0
   -1.7708  -16.7000    0.0000 C   0  0
   -0.6583  -14.5292    0.0000 C   0  0
    0.7708  -14.5250    0.0000 C   0  0
   -4.6458  -18.8667    0.0000 C   0  0
   -3.4042  -19.5708    0.0000 C   0  0
    6.1792  -16.2417    0.0000 H   0  0
    4.0625  -18.9958    0.0000 H   0  0
  2  1  1  0
  3  1  1  0
  4  5  1  0
  5  3  1  0
  6  8  1  0
  7  1  1  0
  1  8  1  1
  9 13  1  0
 10 12  1  0
  2 11  1  0
 12  4  2  0
 13  6  2  0
 14  3  2  0
 15  2  1  0
 16  7  1  0
 17 14  1  0
 18  7  1  0
 19 10  1  0
 20  9  1  0
  2 21  1  6
 22 21  1  0
 23 13  1  0
 24 25  1  0
 25 22  2  0
 26 19  2  0
 27 20  1  0
 28 23  1  0
 29  5  2  0
 30 15  2  0
 31 24  2  0
 32 28  2  0
 33 34  2  0
 34 39  1  0
 35 12  1  0
 36 24  1  0
 37 16  1  0
 38 16  1  0
 39 40  1  0
 40 27  1  0
 41 25  1  0
 27 42  1  6
 43 32  1  0
 44 32  1  0
 45 33  1  0
 46 33  1  0
  7 47  1  1
 17 48  1  6
 16 11  1  0
 18 17  1  0
  4  6  1  0
 15 17  1  0
 10  9  2  0
 26 27  1  0
M  END
>  <MOLREGNO>
561598

>  <CHEMBLID>
CHEMBL555017

>  <SYNONYMS>
Gambogic Acid | (-)-Gambogic Acid | R-Gambogic Acid | Gambogic Acid.

>  <MAX_PHASE>
0

>  <MOLWEIGHT>
628.75

>  <ALOGP>
6.96

>  <PSA>
119.36

>  <HBA>
8

>  <HBD>
2

>  <RO5>
2

>  <RTB>
8

>  <RO3>
N

>  <ACD_MOST_APKA>
4.58

>  <ACD_MOST_BPKA>


>  <ACD_LOGP>
6.49

>  <ACD_LOGD>
3.04

>  <AROMATIC_RINGS>
1

>  <HEAVY_ATOMS>
46

>  <QED_WEIGHTED>
.23

>  <HBA_LIPINSKI>
8

>  <HBD_LIPINSKI>
2

>  <NUM_LIPINSKI_RO5_VIOLATIONS>
1

>  <MW_MONOISOTOPIC>
628.3036

>  <MOLECULAR_SPECIES>
ACID

>  <FULL_MOLFORMULA>
C38H44O8

$$$$

  SciTegic05061116452D

 19 20  0  0  0  0            999 V2000
   13.5336   -1.2558    0.0000 C   0  0
   13.9448   -0.5422    0.0000 C   0  0
   13.5336    0.1713    0.0000 C   0  0
   13.9448    0.8848    0.0000 N   0  3
   13.5336    1.6026    0.0000 O   0  0
   14.7713    0.8848    0.0000 C   0  0
   15.1825    1.6026    0.0000 C   0  0
   16.0090    1.6026    0.0000 C   0  0
   16.4202    0.8848    0.0000 C   0  0
   16.0090    0.1713    0.0000 C   0  0
   15.1825    0.1713    0.0000 C   0  0
   14.7713   -0.5422    0.0000 N   0  0
   15.1825   -1.2558    0.0000 O   0  5
   12.7072    0.1713    0.0000 C   0  0
   12.2960    0.8848    0.0000 O   0  0
   12.2960   -0.5422    0.0000 N   0  0
   11.4695   -0.5422    0.0000 C   0  0
   11.0583   -1.2558    0.0000 C   0  0
   10.2318   -1.2558    0.0000 O   0  0
  1  2  1  0
  2  3  2  0
  3  4  1  0
  4  5  2  0
  4  6  1  0
  6  7  2  0
  7  8  1  0
  8  9  2  0
  9 10  1  0
 10 11  2  0
  6 11  1  0
 11 12  1  0
  2 12  1  0
 12 13  1  0
  3 14  1  0
 14 15  2  0
 14 16  1  0
 16 17  1  0
 17 18  1  0
 18 19  1  0
M  CHG  2   4   1  13  -1
M  END
>  <MOLREGNO>
1060896

>  <CHEMBLID>
CHEMBL1649716

>  <SYNONYMS>
BAY VA 9391 | OLAQUINDOX

>  <MAX_PHASE>
0

>  <MOLWEIGHT>
263.25

>  <ALOGP>
-.33

>  <PSA>
95.71

>  <HBA>
5

>  <HBD>
2

>  <RO5>
0

>  <RTB>
3

>  <RO3>
N

>  <ACD_MOST_APKA>


>  <ACD_MOST_BPKA>


>  <ACD_LOGP>


>  <ACD_LOGD>


>  <AROMATIC_RINGS>
1

>  <HEAVY_ATOMS>
19

>  <QED_WEIGHTED>
.73

>  <HBA_LIPINSKI>
7

>  <HBD_LIPINSKI>
2

>  <NUM_LIPINSKI_RO5_VIOLATIONS>
0

>  <MW_MONOISOTOPIC>
263.0906

>  <MOLECULAR_SPECIES>


>  <FULL_MOLFORMULA>
C12H13N3O4

$$$$

  SciTegic12231509382D

 63 69  0  0  0  0            999 V2000
    6.7832  -15.4789    0.0000 C   0  0
    6.3725  -14.7654    0.0000 C   0  0
    5.9613  -15.4763    0.0000 C   0  0
   10.2557   -9.9653    0.0000 C   0  0
   10.6747  -10.6831    0.0000 C   0  0  2  0  0  0
   11.0853   -9.9628    0.0000 C   0  0
    5.6630  -13.5332    0.0000 C   0  0
    5.6630  -14.3588    0.0000 C   0  0  2  0  0  0
    6.3762  -13.1142    0.0000 C   0  0
    7.0893  -13.5332    0.0000 C   0  0  1  0  0  0
    7.0903  -14.3588    0.0000 C   0  0  1  0  0  0
    7.8024  -14.7663    0.0000 C   0  0
    8.5181  -14.3570    0.0000 C   0  0
    7.8003  -13.1151    0.0000 C   0  0  2  0  0  0
    8.5127  -13.5336    0.0000 C   0  0  2  0  0  0
    8.5205  -11.8872    0.0000 C   0  0
    7.8011  -12.2927    0.0000 C   0  0
    9.2329  -12.3016    0.0000 C   0  0
    9.2225  -13.1221    0.0000 C   0  0  1  0  0  0
    9.9245  -13.5413    0.0000 C   0  0
   10.6415  -13.1402    0.0000 C   0  0
    9.9455  -11.9001    0.0000 C   0  0  1  0  0  0
   10.6489  -12.3206    0.0000 C   0  0  2  0  0  0
   11.3587  -11.9275    0.0000 C   0  0
   11.3756  -11.1081    0.0000 C   0  0
    9.9561  -11.0823    0.0000 C   0  0
   11.9108   -9.9603    0.0000 O   0  0
   10.6724   -9.2526    0.0000 O   0  0
   10.6415  -11.4921    0.0000 C   0  0
    9.9404  -12.7242    0.0000 H   0  0
    9.2144  -13.9440    0.0000 C   0  0
    8.5050  -12.7076    0.0000 C   0  0
    7.7955  -13.9398    0.0000 H   0  0
    7.0874  -11.8789    0.0000 O   0  0
    7.0819  -12.7076    0.0000 C   0  0
    7.0861  -15.1802    0.0000 H   0  0
    4.9518  -14.7698    0.0000 O   0  0
    5.0781  -13.7697    0.0000 H   0  0
    4.2361  -14.3593    0.0000 C   0  0  1  0  0  0
    4.2335  -13.5332    0.0000 O   0  0
    3.5219  -13.1186    0.0000 C   0  0  1  0  0  0
    2.8041  -13.5303    0.0000 C   0  0  2  0  0  0
    2.8024  -14.3569    0.0000 C   0  0  1  0  0  0
    3.5185  -14.7718    0.0000 C   0  0  1  0  0  0
    3.5248  -12.2931    0.0000 C   0  0
    4.2417  -11.8849    0.0000 O   0  0
    2.8107  -11.8799    0.0000 O   0  0
    2.0900  -13.1130    0.0000 O   0  0
    2.0856  -14.7654    0.0000 O   0  0
    3.5171  -15.5974    0.0000 O   0  0
    2.8008  -16.0110    0.0000 C   0  0  2  0  0  0
    2.0851  -15.5968    0.0000 O   0  0
    1.3710  -16.0070    0.0000 C   0  0  1  0  0  0
    1.3653  -16.8329    0.0000 C   0  0  2  0  0  0
    2.0800  -17.2471    0.0000 C   0  0  1  0  0  0
    2.8003  -16.8395    0.0000 C   0  0  1  0  0  0
    0.6577  -15.5883    0.0000 C   0  0
    0.6622  -14.7626    0.0000 O   0  0
   -0.0601  -15.9992    0.0000 O   0  0
    0.6475  -17.2397    0.0000 O   0  0
    2.0757  -18.0726    0.0000 O   0  0
    3.5144  -17.2526    0.0000 O   0  0
    2.7962  -15.1844    0.0000 H   0  0
 13 15  1  0
 22 30  1  1
 14 15  1  0
 19 31  1  6
  7  8  1  0
 15 32  1  1
 14 33  1  6
 17 34  2  0
  5  4  1  0
 10 35  1  1
 14 17  1  0
 11 36  1  6
 15 19  1  0
  8 37  1  0
 18 16  2  0
  8 38  1  6
 16 17  1  0
 39 37  1  6
 39 40  1  0
 18 19  1  0
  7  9  1  0
  8  2  1  0
  2 11  1  0
 10  9  1  0
 39 44  1  0
 41 40  1  0
 42 41  1  0
 43 42  1  0
 44 43  1  0
 18 22  1  0
 41 45  1  1
 19 20  1  0
 45 46  1  0
 20 21  1  0
 45 47  2  0
 21 23  1  0
 42 48  1  6
 22 23  1  0
 43 49  1  1
 10 11  1  0
 44 50  1  6
  5  6  1  1
 50 51  1  0
 51 52  1  0
  2  1  1  0
  3  2  1  0
 22 26  1  0
 23 24  1  0
 51 56  1  0
 52 53  1  0
 53 54  1  0
 54 55  1  0
 55 56  1  0
 24 25  1  0
 53 57  1  1
 25  5  1  0
 57 58  1  0
  5 26  1  0
 57 59  2  0
 10 14  1  0
 54 60  1  6
  6 27  1  0
 55 61  1  1
 11 12  1  0
 56 62  1  6
  6 28  2  0
 51 63  1  6
 12 13  1  0
 23 29  1  1
M  END
>  <MOLREGNO>
349663

>  <CHEMBLID>
CHEMBL441687

>  <SYNONYMS>
GLYCYRRHIZINATE DIPOTASSIUM | Glycyrrhizic Acid | E958 | GLYCYRRHIZINIC ACID | GLYCYRRHETINIC ACID | GLYCYRRHIZIN

>  <MAX_PHASE>
3

>  <MOLWEIGHT>
822.93

>  <ALOGP>
2.42

>  <PSA>
267.03

>  <HBA>
16

>  <HBD>
8

>  <RO5>
3

>  <RTB>
7

>  <RO3>
N

>  <ACD_MOST_APKA>
2.76

>  <ACD_MOST_BPKA>


>  <ACD_LOGP>
4.64

>  <ACD_LOGD>
-1.1

>  <AROMATIC_RINGS>
0

>  <HEAVY_ATOMS>
58

>  <QED_WEIGHTED>
.17

>  <HBA_LIPINSKI>
16

>  <HBD_LIPINSKI>
8

>  <NUM_LIPINSKI_RO5_VIOLATIONS>
2

>  <MW_MONOISOTOPIC>
822.4038

>  <MOLECULAR_SPECIES>
ACID

>  <FULL_MOLFORMULA>
C42H62O16

$$$$

  SciTegic11201309402D

 37 41  0  0  0  0            999 V2000
    2.2040   -0.8584    0.0000 C   0  0
    3.0290   -0.8584    0.0000 C   0  0
    3.4415   -0.1440    0.0000 C   0  0  1  0  0  0
    3.0290    0.5705    0.0000 C   0  0
    2.2040    0.5705    0.0000 C   0  0  2  0  0  0
    1.7915    1.2850    0.0000 C   0  0
    0.9665    1.2850    0.0000 C   0  0
    0.5540    0.5705    0.0000 C   0  0  2  0  0  0
    0.9665   -0.1440    0.0000 C   0  0  1  0  0  0
    1.7915   -0.1440    0.0000 C   0  0  1  0  0  0
    0.5540   -0.8584    0.0000 C   0  0
   -0.2710   -0.8584    0.0000 C   0  0
   -0.6835   -0.1440    0.0000 C   0  0
   -0.2710    0.5705    0.0000 C   0  0  1  0  0  0
   -0.6835    1.2850    0.0000 C   0  0
   -1.5085    1.2850    0.0000 C   0  0
   -1.9210    0.5705    0.0000 C   0  0  2  0  0  0
   -1.5085   -0.1440    0.0000 C   0  0  1  0  0  0
    1.3790   -0.8584    0.0000 C   0  0
   -1.9210   -0.8584    0.0000 C   0  0
   -2.7460   -0.8584    0.0000 C   0  0  2  0  0  0
   -3.1585   -0.1440    0.0000 C   0  0
   -2.7460    0.5705    0.0000 C   0  0
    3.7286    1.0077    0.0000 C   0  0
    3.0578    1.3950    0.0000 C   0  0
    0.1415    1.2850    0.0000 C   0  0
   -0.3573    1.3910    0.0000 C   0  0
   -2.3335    1.2850    0.0000 C   0  0
   -3.4457   -1.2956    0.0000 C   0  0
   -2.7748   -1.6829    0.0000 C   0  0
    4.2665   -0.1440    0.0000 O   0  0
    0.9665   -1.5729    0.0000 O   0  0
   -4.1741   -0.9083    0.0000 O   0  0
   -3.4169   -2.1201    0.0000 O   0  0
   -1.0085   -1.0100    0.0000 H   0  0
    1.4665   -1.0100    0.0000 H   0  0
    2.7040    1.4365    0.0000 H   0  0
  1  2  1  0
  1 10  1  0
  2  3  1  0
  3  4  1  0
  3 31  1  1
  4  5  1  0
 24  4  1  0
 25  4  1  0
  5  6  1  0
 10  5  1  0
  6  7  1  0
  7  8  1  0
  8  9  1  0
 14  8  1  0
  8 26  1  1
 10  9  1  0
  9 11  1  0
 10 19  1  1
 11 12  1  0
 11 32  2  0
 12 13  2  0
 13 14  1  0
 18 13  1  0
 14 15  1  0
 14 27  1  6
 15 16  1  0
 16 17  1  0
 17 18  1  0
 17 23  1  0
 17 28  1  1
 18 20  1  0
 20 21  1  0
 21 22  1  0
 21 29  1  0
 21 30  1  6
 22 23  1  0
 29 33  2  0
 29 34  1  0
 18 35  1  1
  9 36  1  6
  5 37  1  6
M  END
>  <MOLREGNO>
387585

>  <CHEMBLID>
CHEMBL230006

>  <SYNONYMS>
URALENIC ACID | NSC-35350 | NSC-35347 | GLYCYRRHETIC ACID | RHETINIC ACID | ENOXOLONE

>  <MAX_PHASE>
2

>  <MOLWEIGHT>
470.68

>  <ALOGP>
5.66

>  <PSA>
74.59

>  <HBA>
4

>  <HBD>
2

>  <RO5>
1

>  <RTB>
1

>  <RO3>
N

>  <ACD_MOST_APKA>
4.71

>  <ACD_MOST_BPKA>


>  <ACD_LOGP>
5.5

>  <ACD_LOGD>
2.85

>  <AROMATIC_RINGS>
0

>  <HEAVY_ATOMS>
34

>  <QED_WEIGHTED>
.52

>  <HBA_LIPINSKI>
4

>  <HBD_LIPINSKI>
2

>  <NUM_LIPINSKI_RO5_VIOLATIONS>
1

>  <MW_MONOISOTOPIC>
470.3396

>  <MOLECULAR_SPECIES>
ACID

>  <FULL_MOLFORMULA>
C30H46O4

$$$$

  CDK    6/4/10,11:42

 30 33  0  0  0  0  0  0  0  0999 V2000
   10.9753  -17.1399    0.0000 O   0  0  0  0  0  0  0  0  0  0  0  0
   11.6874  -16.7239    0.0000 C   0  0  0  0  0  0  0  0  0  0  0  0
   12.4006  -17.1383    0.0000 C   0  0  0  0  0  0  0  0  0  0  0  0
   13.1105  -16.7258    0.0000 C   0  0  0  0  0  0  0  0  0  0  0  0
   13.1106  -15.9008    0.0000 C   0  0  0  0  0  0  0  0  0  0  0  0
   12.3944  -15.4899    0.0000 C   0  0  0  0  0  0  0  0  0  0  0  0
   11.6783  -15.9040    0.0000 O   0  0  0  0  0  0  0  0  0  0  0  0
   12.3931  -14.6652    0.0000 C   0  0  0  0  0  0  0  0  0  0  0  0
   11.6782  -14.2540    0.0000 O   0  0  0  0  0  0  0  0  0  0  0  0
   13.8243  -15.4875    0.0000 O   0  0  0  0  0  0  0  0  0  0  0  0
   13.8253  -17.1373    0.0000 O   0  0  0  0  0  0  0  0  0  0  0  0
   12.4005  -17.9630    0.0000 O   0  0  0  0  0  0  0  0  0  0  0  0
    5.2550  -14.6780    0.0000 C   0  0  0  0  0  0  0  0  0  0  0  0
    5.2538  -15.5051    0.0000 C   0  0  0  0  0  0  0  0  0  0  0  0
    5.9684  -15.9177    0.0000 C   0  0  0  0  0  0  0  0  0  0  0  0
    5.9666  -14.2653    0.0000 C   0  0  0  0  0  0  0  0  0  0  0  0
    6.6817  -14.6744    0.0000 C   0  0  0  0  0  0  0  0  0  0  0  0
    6.6851  -15.5025    0.0000 C   0  0  0  0  0  0  0  0  0  0  0  0
    7.4001  -15.9114    0.0000 O   0  0  0  0  0  0  0  0  0  0  0  0
    8.1162  -15.4967    0.0000 C   0  0  0  0  0  0  0  0  0  0  0  0
    8.1128  -14.6685    0.0000 C   0  0  0  0  0  0  0  0  0  0  0  0
    7.3933  -14.2550    0.0000 C   0  0  0  0  0  0  0  0  0  0  0  0
    4.5392  -15.9168    0.0000 O   0  0  0  0  0  0  0  0  0  0  0  0
    7.3887  -13.4303    0.0000 O   0  0  0  0  0  0  0  0  0  0  0  0
    8.8316  -15.9070    0.0000 C   0  0  0  0  0  0  0  0  0  0  0  0
    8.8296  -16.7325    0.0000 C   0  0  0  0  0  0  0  0  0  0  0  0
    9.5440  -17.1429    0.0000 C   0  0  0  0  0  0  0  0  0  0  0  0
   10.2582  -16.7285    0.0000 C   0  0  0  0  0  0  0  0  0  0  0  0
   10.2533  -15.8995    0.0000 C   0  0  0  0  0  0  0  0  0  0  0  0
    9.5382  -15.4930    0.0000 C   0  0  0  0  0  0  0  0  0  0  0  0
 15 18  2  0  0  0  0 
  2  3  1  0  0  0  0 
 17 16  2  0  0  0  0 
 16 13  1  0  0  0  0 
 17 18  1  0  0  0  0 
  6  8  1  6  0  0  0 
  8  9  1  0  0  0  0 
  2  1  1  6  0  0  0 
  5 10  1  1  0  0  0 
  2  7  1  0  0  0  0 
 17 22  1  0  0  0  0 
 18 19  1  0  0  0  0 
 19 20  1  0  0  0  0 
 20 21  1  0  0  0  0 
 21 22  1  0  0  0  0 
  4 11  1  6  0  0  0 
 14 23  1  0  0  0  0 
  3  4  1  0  0  0  0 
 22 24  2  0  0  0  0 
  3 12  1  1  0  0  0 
 20 25  1  1  0  0  0 
  4  5  1  0  0  0  0 
 25 26  2  0  0  0  0 
  5  6  1  0  0  0  0 
 26 27  1  0  0  0  0 
 13 14  2  0  0  0  0 
 27 28  2  0  0  0  0 
  6  7  1  0  0  0  0 
 28 29  1  0  0  0  0 
 14 15  1  0  0  0  0 
 29 30  2  0  0  0  0 
 30 25  1  0  0  0  0 
 28  1  1  0  0  0  0 
M  END
>  <MOLREGNO>
445780

>  <CHEMBLID>
CHEMBL511995

>  <SYNONYMS>
Liquiritin

>  <MAX_PHASE>
0

>  <MOLWEIGHT>
418.39

>  <ALOGP>
.69

>  <PSA>
145.91

>  <HBA>
9

>  <HBD>
5

>  <RO5>
0

>  <RTB>
4

>  <RO3>
N

>  <ACD_MOST_APKA>
7.7

>  <ACD_MOST_BPKA>


>  <ACD_LOGP>
.28

>  <ACD_LOGD>
.1

>  <AROMATIC_RINGS>
2

>  <HEAVY_ATOMS>
30

>  <QED_WEIGHTED>
.48

>  <HBA_LIPINSKI>
9

>  <HBD_LIPINSKI>
5

>  <NUM_LIPINSKI_RO5_VIOLATIONS>
0

>  <MW_MONOISOTOPIC>
418.1264

>  <MOLECULAR_SPECIES>
NEUTRAL

>  <FULL_MOLFORMULA>
C21H22O9

$$$$

  CDK    6/4/10,11:42

 30 32  0  0  0  0  0  0  0  0999 V2000
   -3.7764   -7.7541    0.0000 C   0  0  0  0  0  0  0  0  0  0  0  0
   -3.7776   -8.5815    0.0000 C   0  0  0  0  0  0  0  0  0  0  0  0
   -3.0628   -8.9944    0.0000 C   0  0  0  0  0  0  0  0  0  0  0  0
   -2.3463   -8.5810    0.0000 C   0  0  0  0  0  0  0  0  0  0  0  0
   -2.3492   -7.7505    0.0000 C   0  0  0  0  0  0  0  0  0  0  0  0
   -3.0646   -7.3414    0.0000 C   0  0  0  0  0  0  0  0  0  0  0  0
   -4.4924   -8.9934    0.0000 O   0  0  0  0  0  0  0  0  0  0  0  0
   -3.0670   -6.5164    0.0000 O   0  0  0  0  0  0  0  0  0  0  0  0
   -1.6363   -7.3353    0.0000 C   0  0  0  0  0  0  0  0  0  0  0  0
   -0.9203   -7.7451    0.0000 C   0  0  0  0  0  0  0  0  0  0  0  0
   -1.6394   -6.5103    0.0000 O   0  0  0  0  0  0  0  0  0  0  0  0
   -0.2073   -7.3299    0.0000 C   0  0  0  0  0  0  0  0  0  0  0  0
    0.5087   -7.7397    0.0000 C   0  0  0  0  0  0  0  0  0  0  0  0
    0.5087   -8.5636    0.0000 C   0  0  0  0  0  0  0  0  0  0  0  0
    1.2238   -8.9733    0.0000 C   0  0  0  0  0  0  0  0  0  0  0  0
    1.9377   -8.5581    0.0000 C   0  0  0  0  0  0  0  0  0  0  0  0
    1.9320   -7.7288    0.0000 C   0  0  0  0  0  0  0  0  0  0  0  0
    1.2162   -7.3228    0.0000 C   0  0  0  0  0  0  0  0  0  0  0  0
    2.6543   -8.9669    0.0000 O   0  0  0  0  0  0  0  0  0  0  0  0
    3.3667   -8.5508    0.0000 C   0  0  0  0  0  0  0  0  0  0  0  0
    4.0801   -8.9654    0.0000 C   0  0  0  0  0  0  0  0  0  0  0  0
    4.7903   -8.5527    0.0000 C   0  0  0  0  0  0  0  0  0  0  0  0
    4.7904   -7.7274    0.0000 C   0  0  0  0  0  0  0  0  0  0  0  0
    4.0739   -7.3163    0.0000 C   0  0  0  0  0  0  0  0  0  0  0  0
    3.3575   -7.7306    0.0000 O   0  0  0  0  0  0  0  0  0  0  0  0
    4.0726   -6.4913    0.0000 C   0  0  0  0  0  0  0  0  0  0  0  0
    3.3574   -6.0800    0.0000 O   0  0  0  0  0  0  0  0  0  0  0  0
    5.5043   -7.3139    0.0000 O   0  0  0  0  0  0  0  0  0  0  0  0
    5.5053   -8.9643    0.0000 O   0  0  0  0  0  0  0  0  0  0  0  0
    4.0800   -9.7904    0.0000 O   0  0  0  0  0  0  0  0  0  0  0  0
 14 15  1  0  0  0  0 
  3  4  2  0  0  0  0 
 15 16  2  0  0  0  0 
  6  8  1  0  0  0  0 
 16 17  1  0  0  0  0 
 17 18  2  0  0  0  0 
 18 13  1  0  0  0  0 
  5  9  1  0  0  0  0 
 16 19  1  0  0  0  0 
  4  5  1  0  0  0  0 
 20 19  1  6  0  0  0 
 20 21  1  0  0  0  0 
  9 10  1  0  0  0  0 
  2  3  1  0  0  0  0 
  9 11  2  0  0  0  0 
  5  6  2  0  0  0  0 
 10 12  2  0  0  0  0 
 20 25  1  0  0  0  0 
 21 22  1  0  0  0  0 
 22 23  1  0  0  0  0 
 23 24  1  0  0  0  0 
 24 25  1  0  0  0  0 
  6  1  1  0  0  0  0 
 24 26  1  6  0  0  0 
 12 13  1  0  0  0  0 
 26 27  1  0  0  0  0 
  1  2  2  0  0  0  0 
 23 28  1  1  0  0  0 
 13 14  2  0  0  0  0 
 22 29  1  6  0  0  0 
  2  7  1  0  0  0  0 
 21 30  1  1  0  0  0 
M  END
>  <MOLREGNO>
601906

>  <CHEMBLID>
CHEMBL599763

>  <SYNONYMS>
Isoliquiritin

>  <MAX_PHASE>
0

>  <MOLWEIGHT>
418.39

>  <ALOGP>
1.05

>  <PSA>
156.91

>  <HBA>
9

>  <HBD>
6

>  <RO5>
1

>  <RTB>
6

>  <RO3>
N

>  <ACD_MOST_APKA>
7.46

>  <ACD_MOST_BPKA>


>  <ACD_LOGP>
.1

>  <ACD_LOGD>
-.29

>  <AROMATIC_RINGS>
2

>  <HEAVY_ATOMS>
30

>  <QED_WEIGHTED>
.3

>  <HBA_LIPINSKI>
9

>  <HBD_LIPINSKI>
6

>  <NUM_LIPINSKI_RO5_VIOLATIONS>
1

>  <MW_MONOISOTOPIC>
418.1264

>  <MOLECULAR_SPECIES>
NEUTRAL

>  <FULL_MOLFORMULA>
C21H22O9

$$$$

  Mrv0541 04051115152D          

 19 21  0  0  0  0            999 V2000
   -2.4917   -0.0458    0.0000 C   0  0  0  0  0  0  0  0  0  0  0  0
   -2.4917   -0.8708    0.0000 C   0  0  0  0  0  0  0  0  0  0  0  0
   -1.7772   -1.2833    0.0000 C   0  0  0  0  0  0  0  0  0  0  0  0
   -1.0627   -0.8708    0.0000 C   0  0  0  0  0  0  0  0  0  0  0  0
   -1.0627   -0.0458    0.0000 C   0  0  0  0  0  0  0  0  0  0  0  0
   -1.7772    0.3667    0.0000 C   0  0  0  0  0  0  0  0  0  0  0  0
   -0.3483   -1.2833    0.0000 C   0  0  0  0  0  0  0  0  0  0  0  0
    0.3662   -0.8708    0.0000 C   0  0  0  0  0  0  0  0  0  0  0  0
    0.3662   -0.0458    0.0000 C   0  0  2  0  0  0  0  0  0  0  0  0
   -0.3483    0.3667    0.0000 O   0  0  0  0  0  0  0  0  0  0  0  0
    1.0807    0.3667    0.0000 C   0  0  0  0  0  0  0  0  0  0  0  0
    1.0807    1.1917    0.0000 C   0  0  0  0  0  0  0  0  0  0  0  0
    1.7951    1.6042    0.0000 C   0  0  0  0  0  0  0  0  0  0  0  0
    2.5096    1.1917    0.0000 C   0  0  0  0  0  0  0  0  0  0  0  0
    2.5096    0.3667    0.0000 C   0  0  0  0  0  0  0  0  0  0  0  0
    1.7951   -0.0458    0.0000 C   0  0  0  0  0  0  0  0  0  0  0  0
   -0.3483   -2.1083    0.0000 O   0  0  0  0  0  0  0  0  0  0  0  0
   -3.2062    0.3667    0.0000 O   0  0  0  0  0  0  0  0  0  0  0  0
    3.2241    1.6042    0.0000 O   0  0  0  0  0  0  0  0  0  0  0  0
  1  2  2  0  0  0  0
  1  6  1  0  0  0  0
  1 18  1  0  0  0  0
  2  3  1  0  0  0  0
  3  4  2  0  0  0  0
  4  5  1  0  0  0  0
  4  7  1  0  0  0  0
  5  6  2  0  0  0  0
  5 10  1  0  0  0  0
  7  8  1  0  0  0  0
  7 17  2  0  0  0  0
  8  9  1  0  0  0  0
  9 10  1  0  0  0  0
  9 11  1  6  0  0  0
 11 12  2  0  0  0  0
 11 16  1  0  0  0  0
 12 13  1  0  0  0  0
 13 14  2  0  0  0  0
 14 15  1  0  0  0  0
 14 19  1  0  0  0  0
 15 16  2  0  0  0  0
M  END
>  <MOLREGNO>
423034

>  <CHEMBLID>
CHEMBL252642

>  <SYNONYMS>
(2S)-Liquiritigenin | 7,4'-Dihydroxyflavanone | Liquirtigenin | 4',7-Dihydroxyflavanone | Liquiritigenin

>  <MAX_PHASE>
0

>  <MOLWEIGHT>
256.25

>  <ALOGP>
2.62

>  <PSA>
66.76

>  <HBA>
4

>  <HBD>
2

>  <RO5>
0

>  <RTB>
1

>  <RO3>
N

>  <ACD_MOST_APKA>
7.71

>  <ACD_MOST_BPKA>


>  <ACD_LOGP>
2.5

>  <ACD_LOGD>
2.32

>  <AROMATIC_RINGS>
2

>  <HEAVY_ATOMS>
19

>  <QED_WEIGHTED>
.82

>  <HBA_LIPINSKI>
4

>  <HBD_LIPINSKI>
2

>  <NUM_LIPINSKI_RO5_VIOLATIONS>
0

>  <MW_MONOISOTOPIC>
256.0736

>  <MOLECULAR_SPECIES>
NEUTRAL

>  <FULL_MOLFORMULA>
C15H12O4

$$$$

  SciTegic12171313052D

 21 22  0  0  0  0            999 V2000
    3.1851   -2.9925    0.0000 C   0  0
    3.1851   -3.8175    0.0000 C   0  0
    3.8933   -4.2279    0.0000 C   0  0
    4.6578   -3.8175    0.0000 C   0  0
    4.6578   -2.9925    0.0000 C   0  0
    3.8933   -2.5175    0.0000 C   0  0
    5.3661   -4.2279    0.0000 C   0  0
    6.0702   -3.8175    0.0000 C   0  0
    6.0702   -2.9321    0.0000 C   0  0
    6.8389   -2.5175    0.0000 C   0  0
    7.5472   -2.9321    0.0000 C   0  0
    8.3117   -2.5175    0.0000 C   0  0
    8.3117   -1.6926    0.0000 C   0  0
    7.5472   -1.2822    0.0000 C   0  0
    6.8389   -1.6926    0.0000 C   0  0
    9.0201   -1.2822    0.0000 O   0  0
    5.3661   -5.0528    0.0000 O   0  0
    2.4162   -2.5175    0.0000 O   0  0
    7.5335   -3.7743    0.0000 O   0  0
    8.2560   -4.2074    0.0000 C   0  0
    9.0355   -2.9483    0.0000 O   0  0
  1  2  2  0
  2  3  1  0
  3  4  2  0
  4  5  1  0
  5  6  2  0
  6  1  1  0
  4  7  1  0
  7  8  1  0
  8  9  2  0
  9 10  1  0
 10 11  2  0
 11 12  1  0
 12 13  2  0
 13 14  1  0
 14 15  2  0
 15 10  1  0
 13 16  1  0
  7 17  2  0
  1 18  1  0
 11 19  1  0
 19 20  1  0
 12 21  1  0
M  END
>  <MOLREGNO>
1586531

>  <CHEMBLID>
CHEMBL2437372

>  <SYNONYMS>


>  <MAX_PHASE>
0

>  <MOLWEIGHT>
286.28

>  <ALOGP>
2.96

>  <PSA>
86.99

>  <HBA>
5

>  <HBD>
3

>  <RO5>
0

>  <RTB>
4

>  <RO3>
N

>  <ACD_MOST_APKA>


>  <ACD_MOST_BPKA>
6.82

>  <ACD_LOGP>
3.06

>  <ACD_LOGD>
2.96

>  <AROMATIC_RINGS>
2

>  <HEAVY_ATOMS>
21

>  <QED_WEIGHTED>
.46

>  <HBA_LIPINSKI>
5

>  <HBD_LIPINSKI>
3

>  <NUM_LIPINSKI_RO5_VIOLATIONS>
0

>  <MW_MONOISOTOPIC>
286.0841

>  <MOLECULAR_SPECIES>
NEUTRAL

>  <FULL_MOLFORMULA>
C16H14O5

$$$$

  Mrv0541 04051115152D          

 19 20  0  0  0  0            999 V2000
    0.9768    2.6430    0.0000 C   0  0  0  0  0  0  0  0  0  0  0  0
    1.6912    2.2305    0.0000 C   0  0  0  0  0  0  0  0  0  0  0  0
    1.6912    1.4055    0.0000 C   0  0  0  0  0  0  0  0  0  0  0  0
    0.9768    0.9930    0.0000 C   0  0  0  0  0  0  0  0  0  0  0  0
    0.2623    1.4055    0.0000 C   0  0  0  0  0  0  0  0  0  0  0  0
    0.2623    2.2305    0.0000 C   0  0  0  0  0  0  0  0  0  0  0  0
    0.9768    0.1680    0.0000 C   0  0  0  0  0  0  0  0  0  0  0  0
    0.2623   -0.2445    0.0000 C   0  0  0  0  0  0  0  0  0  0  0  0
    0.2623   -1.0695    0.0000 C   0  0  0  0  0  0  0  0  0  0  0  0
   -0.4522    0.9930    0.0000 O   0  0  0  0  0  0  0  0  0  0  0  0
   -0.4522   -1.4820    0.0000 C   0  0  0  0  0  0  0  0  0  0  0  0
   -0.4522   -2.3070    0.0000 C   0  0  0  0  0  0  0  0  0  0  0  0
   -1.1666   -2.7195    0.0000 C   0  0  0  0  0  0  0  0  0  0  0  0
   -1.8811   -2.3070    0.0000 C   0  0  0  0  0  0  0  0  0  0  0  0
   -1.8811   -1.4820    0.0000 C   0  0  0  0  0  0  0  0  0  0  0  0
   -1.1666   -1.0695    0.0000 C   0  0  0  0  0  0  0  0  0  0  0  0
    1.6912   -0.2445    0.0000 O   0  0  0  0  0  0  0  0  0  0  0  0
   -2.5956   -2.7195    0.0000 O   0  0  0  0  0  0  0  0  0  0  0  0
    0.9768    3.4680    0.0000 O   0  0  0  0  0  0  0  0  0  0  0  0
  1  2  2  0  0  0  0
  1  6  1  0  0  0  0
  1 19  1  0  0  0  0
  2  3  1  0  0  0  0
  3  4  2  0  0  0  0
  4  5  1  0  0  0  0
  4  7  1  0  0  0  0
  5  6  2  0  0  0  0
  5 10  1  0  0  0  0
  7  8  1  0  0  0  0
  7 17  2  0  0  0  0
  8  9  2  0  0  0  0
 11  9  1  0  0  0  0
 11 12  2  0  0  0  0
 11 16  1  0  0  0  0
 12 13  1  0  0  0  0
 13 14  2  0  0  0  0
 14 15  1  0  0  0  0
 14 18  1  0  0  0  0
 15 16  2  0  0  0  0
M  END
>  <MOLREGNO>
210312

>  <CHEMBLID>
CHEMBL129795

>  <SYNONYMS>
Isoliquiritigenin

>  <MAX_PHASE>
0

>  <MOLWEIGHT>
256.25

>  <ALOGP>
2.98

>  <PSA>
77.76

>  <HBA>
4

>  <HBD>
3

>  <RO5>
0

>  <RTB>
3

>  <RO3>
N

>  <ACD_MOST_APKA>
7.5

>  <ACD_MOST_BPKA>


>  <ACD_LOGP>
2.75

>  <ACD_LOGD>
2.38

>  <AROMATIC_RINGS>
2

>  <HEAVY_ATOMS>
19

>  <QED_WEIGHTED>
.58

>  <HBA_LIPINSKI>
4

>  <HBD_LIPINSKI>
3

>  <NUM_LIPINSKI_RO5_VIOLATIONS>
0

>  <MW_MONOISOTOPIC>
256.0736

>  <MOLECULAR_SPECIES>
NEUTRAL

>  <FULL_MOLFORMULA>
C15H12O4

$$$$

  CDK    6/4/10,11:42

 20 21  0  0  0  0  0  0  0  0999 V2000
   16.4444    0.4959    0.0000 C   0  0  0  0  0  0  0  0  0  0  0  0
   16.4432   -0.3315    0.0000 C   0  0  0  0  0  0  0  0  0  0  0  0
   17.1581   -0.7444    0.0000 C   0  0  0  0  0  0  0  0  0  0  0  0
   17.8745   -0.3310    0.0000 C   0  0  0  0  0  0  0  0  0  0  0  0
   17.8716    0.4995    0.0000 C   0  0  0  0  0  0  0  0  0  0  0  0
   17.1563    0.9086    0.0000 C   0  0  0  0  0  0  0  0  0  0  0  0
   15.7298    0.9082    0.0000 O   0  0  0  0  0  0  0  0  0  0  0  0
   18.5896   -0.7424    0.0000 C   0  0  0  0  0  0  0  0  0  0  0  0
   18.5909   -1.5674    0.0000 O   0  0  0  0  0  0  0  0  0  0  0  0
   19.3034   -0.3288    0.0000 C   0  0  0  0  0  0  0  0  0  0  0  0
   19.3021    0.4962    0.0000 C   0  0  0  0  0  0  0  0  0  0  0  0
   20.0160    0.9098    0.0000 C   0  0  0  0  0  0  0  0  0  0  0  0
   20.7287    0.4974    0.0000 C   0  0  0  0  0  0  0  0  0  0  0  0
   21.4420    0.9104    0.0000 C   0  0  0  0  0  0  0  0  0  0  0  0
   21.4412    1.7363    0.0000 C   0  0  0  0  0  0  0  0  0  0  0  0
   20.7210    2.1475    0.0000 C   0  0  0  0  0  0  0  0  0  0  0  0
   20.0106    1.7322    0.0000 C   0  0  0  0  0  0  0  0  0  0  0  0
   20.7288   -0.3276    0.0000 O   0  0  0  0  0  0  0  0  0  0  0  0
   22.1544    2.1508    0.0000 O   0  0  0  0  0  0  0  0  0  0  0  0
   20.0143   -0.7401    0.0000 C   0  0  0  0  0  0  0  0  0  0  0  0
  8 10  1  0  0  0  0 
  2  3  1  0  0  0  0 
 10 11  2  0  0  0  0 
  5  6  2  0  0  0  0 
 11 12  1  0  0  0  0 
  6  1  1  0  0  0  0 
 12 13  2  0  0  0  0 
  1  2  2  0  0  0  0 
 13 14  1  0  0  0  0 
  1  7  1  0  0  0  0 
 14 15  2  0  0  0  0 
  3  4  2  0  0  0  0 
 15 16  1  0  0  0  0 
  4  8  1  0  0  0  0 
 16 17  2  0  0  0  0 
 17 12  1  0  0  0  0 
 13 18  1  0  0  0  0 
  8  9  2  0  0  0  0 
 15 19  1  0  0  0  0 
  4  5  1  0  0  0  0 
 18 20  1  0  0  0  0 
M  END
>  <MOLREGNO>
232079

>  <CHEMBLID>
CHEMBL141530

>  <SYNONYMS>
Echinantin

>  <MAX_PHASE>
0

>  <MOLWEIGHT>
270.28

>  <ALOGP>
3.2

>  <PSA>
66.76

>  <HBA>
4

>  <HBD>
2

>  <RO5>
0

>  <RTB>
4

>  <RO3>
N

>  <ACD_MOST_APKA>
7.82

>  <ACD_MOST_BPKA>


>  <ACD_LOGP>
3.31

>  <ACD_LOGD>
3.17

>  <AROMATIC_RINGS>
2

>  <HEAVY_ATOMS>
20

>  <QED_WEIGHTED>
.66

>  <HBA_LIPINSKI>
4

>  <HBD_LIPINSKI>
2

>  <NUM_LIPINSKI_RO5_VIOLATIONS>
0

>  <MW_MONOISOTOPIC>
270.0892

>  <MOLECULAR_SPECIES>
NEUTRAL

>  <FULL_MOLFORMULA>
C16H14O4

$$$$

  SciTegic01161211222D

 25 26  0  0  0  0            999 V2000
    7.2375   -5.8917    0.0000 C   0  0
    8.0625   -5.8958    0.0000 C   0  0
    7.6536   -5.1793    0.0000 C   0  0
    3.7902   -8.3750    0.0000 C   0  0
    3.7891   -9.2023    0.0000 C   0  0
    4.5039   -9.6152    0.0000 C   0  0
    5.2203   -9.2019    0.0000 C   0  0
    5.2175   -8.3713    0.0000 C   0  0
    4.5021   -7.9622    0.0000 C   0  0
    3.0757   -7.9626    0.0000 O   0  0
    5.9355   -9.6132    0.0000 C   0  0
    5.9367  -10.4382    0.0000 O   0  0
    6.6493   -9.1996    0.0000 C   0  0
    6.6480   -8.3746    0.0000 C   0  0
    7.3618   -7.9610    0.0000 C   0  0
    8.0745   -8.3734    0.0000 C   0  0
    8.7878   -7.9605    0.0000 C   0  0
    8.7870   -7.1346    0.0000 C   0  0
    8.0669   -6.7234    0.0000 C   0  0
    7.3565   -7.1387    0.0000 C   0  0
    9.5003   -6.7200    0.0000 O   0  0
    8.0746   -9.1984    0.0000 O   0  0
    8.7891   -9.6108    0.0000 C   0  0
    8.7750   -5.4822    0.0000 C   0  0
    9.4916   -5.8911    0.0000 C   0  0
 11 13  1  0
  2  1  1  0
 13 14  2  0
  7  8  1  0
 14 15  1  0
  4  5  2  0
 15 16  2  0
  8  9  2  0
 16 17  1  0
  9  4  1  0
 17 18  2  0
  3  2  1  0
 18 19  1  0
  4 10  1  0
 19 20  2  0
 20 15  1  0
  5  6  1  0
 18 21  1  0
  7 11  1  0
 16 22  1  0
 22 23  1  0
 19  2  1  0
 11 12  2  0
  2 24  1  0
  6  7  2  0
 24 25  2  0
M  END
>  <MOLREGNO>
232036

>  <CHEMBLID>
CHEMBL139702

>  <SYNONYMS>
LICOAGROCHACONE A

>  <MAX_PHASE>
0

>  <MOLWEIGHT>
338.4

>  <ALOGP>
4.67

>  <PSA>
66.76

>  <HBA>
4

>  <HBD>
2

>  <RO5>
0

>  <RTB>
6

>  <RO3>
N

>  <ACD_MOST_APKA>
7.82

>  <ACD_MOST_BPKA>


>  <ACD_LOGP>
5.16

>  <ACD_LOGD>
5.01

>  <AROMATIC_RINGS>
2

>  <HEAVY_ATOMS>
25

>  <QED_WEIGHTED>
.46

>  <HBA_LIPINSKI>
4

>  <HBD_LIPINSKI>
2

>  <NUM_LIPINSKI_RO5_VIOLATIONS>
0

>  <MW_MONOISOTOPIC>
338.1518

>  <MOLECULAR_SPECIES>
NEUTRAL

>  <FULL_MOLFORMULA>
C21H22O4

$$$$

  CDK    9/16/09,9:19

 25 28  0  0  0  0  0  0  0  0999 V2000
   -1.5991   -1.5488    0.0000 C   0  0  0  0  0  0  0  0  0  0  0  0
   -0.8840   -1.9618    0.0000 C   0  0  0  0  0  0  0  0  0  0  0  0
   -1.5980   -0.7211    0.0000 C   0  0  0  0  0  0  0  0  0  0  0  0
   -0.8844   -0.3099    0.0000 C   0  0  0  0  0  0  0  0  0  0  0  0
   -0.8837    0.5090    0.0000 C   0  0  0  0  0  0  0  0  0  0  0  0
   -1.5947    0.9231    0.0000 C   0  0  0  0  0  0  0  0  0  0  0  0
   -2.3083    0.5119    0.0000 C   0  0  0  0  0  0  0  0  0  0  0  0
   -2.3107   -0.3132    0.0000 O   0  0  0  0  0  0  0  0  0  0  0  0
   -0.1701   -0.7175    0.0000 C   0  0  0  0  0  0  0  0  0  0  0  0
   -0.1713   -1.5462    0.0000 C   0  0  0  0  0  0  0  0  0  0  0  0
    0.5420   -1.9594    0.0000 C   0  0  0  0  0  0  0  0  0  0  0  0
    1.2609   -1.5483    0.0000 C   0  0  0  0  0  0  0  0  0  0  0  0
    1.2621   -0.7195    0.0000 C   0  0  0  0  0  0  0  0  0  0  0  0
    0.5443   -0.3017    0.0000 O   0  0  0  0  0  0  0  0  0  0  0  0
   -2.3134    1.3380    0.0000 C   0  0  0  0  0  0  0  0  0  0  0  0
   -3.0262    0.1042    0.0000 C   0  0  0  0  0  0  0  0  0  0  0  0
    1.9744   -1.9591    0.0000 C   0  0  0  0  0  0  0  0  0  0  0  0
    1.9707   -2.7855    0.0000 C   0  0  0  0  0  0  0  0  0  0  0  0
    2.6835   -3.2001    0.0000 C   0  0  0  0  0  0  0  0  0  0  0  0
    3.4004   -2.7894    0.0000 C   0  0  0  0  0  0  0  0  0  0  0  0
    3.4001   -1.9598    0.0000 C   0  0  0  0  0  0  0  0  0  0  0  0
    2.6867   -1.5489    0.0000 C   0  0  0  0  0  0  0  0  0  0  0  0
    4.1146   -3.2031    0.0000 O   0  0  0  0  0  0  0  0  0  0  0  0
    1.2544   -3.1955    0.0000 O   0  0  0  0  0  0  0  0  0  0  0  0
    1.9716   -1.1297    0.0000 H   0  0  0  0  0  0  0  0  0  0  0  0
  3  4  1  0  0  0  0 
  9 14  1  0  0  0  0 
 10 11  1  0  0  0  0 
 11 12  1  0  0  0  0 
 12 13  1  0  0  0  0 
 13 14  1  0  0  0  0 
  3  8  1  0  0  0  0 
  7 15  1  0  0  0  0 
  4  5  1  0  0  0  0 
  7 16  1  0  0  0  0 
  5  6  2  0  0  0  0 
  6  7  1  0  0  0  0 
 17 18  2  0  0  0  0 
  7  8  1  0  0  0  0 
 18 19  1  0  0  0  0 
  9 10  1  0  0  0  0 
 19 20  2  0  0  0  0 
  3  1  2  0  0  0  0 
 20 21  1  0  0  0  0 
 21 22  2  0  0  0  0 
 22 17  1  0  0  0  0 
 12 17  1  0  0  0  0 
  1  2  1  0  0  0  0 
 20 23  1  0  0  0  0 
  2 10  2  0  0  0  0 
 18 24  1  0  0  0  0 
  9  4  2  0  0  0  0 
 12 25  1  6  0  0  0 
M  END
>  <MOLREGNO>
481748

>  <CHEMBLID>
CHEMBL480477

>  <SYNONYMS>
Glabridin

>  <MAX_PHASE>
0

>  <MOLWEIGHT>
324.37

>  <ALOGP>
4

>  <PSA>
58.92

>  <HBA>
4

>  <HBD>
2

>  <RO5>
0

>  <RTB>
1

>  <RO3>
N

>  <ACD_MOST_APKA>
9.66

>  <ACD_MOST_BPKA>


>  <ACD_LOGP>
4.11

>  <ACD_LOGD>
4.1

>  <AROMATIC_RINGS>
2

>  <HEAVY_ATOMS>
24

>  <QED_WEIGHTED>
.83

>  <HBA_LIPINSKI>
4

>  <HBD_LIPINSKI>
2

>  <NUM_LIPINSKI_RO5_VIOLATIONS>
0

>  <MW_MONOISOTOPIC>
324.1362

>  <MOLECULAR_SPECIES>
NEUTRAL

>  <FULL_MOLFORMULA>
C20H20O4

$$$$

  SciTegic01161211222D

 25 26  0  0  0  0            999 V2000
   -4.1764  -13.8791    0.0000 C   0  0
   -4.1776  -14.7065    0.0000 C   0  0
   -3.4628  -15.1194    0.0000 C   0  0
   -2.7463  -14.7060    0.0000 C   0  0
   -2.7492  -13.8755    0.0000 C   0  0
   -3.4646  -13.4664    0.0000 C   0  0
   -4.8910  -13.4668    0.0000 O   0  0
   -2.0312  -15.1174    0.0000 C   0  0
   -2.0299  -15.9424    0.0000 O   0  0
   -1.3174  -14.7038    0.0000 C   0  0
   -1.3187  -13.8788    0.0000 C   0  0
   -0.6049  -13.4652    0.0000 C   0  0
    0.1078  -13.8776    0.0000 C   0  0
    0.8212  -13.4646    0.0000 C   0  0
    0.8203  -12.6387    0.0000 C   0  0
    0.1002  -12.2275    0.0000 C   0  0
   -0.6102  -12.6428    0.0000 C   0  0
    1.5336  -12.2242    0.0000 O   0  0
    0.1079  -14.7026    0.0000 O   0  0
    0.8224  -15.1150    0.0000 C   0  0
    1.5361  -13.8763    0.0000 C   0  0
    1.5370  -14.7013    0.0000 C   0  0
    2.2519  -15.1131    0.0000 C   0  0
    2.2528  -15.9381    0.0000 C   0  0
    2.9659  -14.6998    0.0000 C   0  0
  6  1  1  0
 12 13  2  0
  1  2  2  0
 13 14  1  0
  1  7  1  0
 14 15  2  0
  3  4  2  0
 15 16  1  0
  4  8  1  0
 16 17  2  0
 17 12  1  0
 15 18  1  0
  8  9  2  0
 13 19  1  0
  4  5  1  0
 19 20  1  0
  8 10  1  0
 14 21  1  0
  2  3  1  0
 21 22  1  0
 10 11  2  0
 22 23  2  0
  5  6  2  0
 23 24  1  0
 11 12  1  0
 23 25  1  0
M  END
>  <MOLREGNO>
232057

>  <CHEMBLID>
CHEMBL141207

>  <SYNONYMS>


>  <MAX_PHASE>
0

>  <MOLWEIGHT>
338.4

>  <ALOGP>
5.06

>  <PSA>
66.76

>  <HBA>
4

>  <HBD>
2

>  <RO5>
1

>  <RTB>
6

>  <RO3>
N

>  <ACD_MOST_APKA>
7.82

>  <ACD_MOST_BPKA>


>  <ACD_LOGP>
5.12

>  <ACD_LOGD>
4.98

>  <AROMATIC_RINGS>
2

>  <HEAVY_ATOMS>
25

>  <QED_WEIGHTED>
.44

>  <HBA_LIPINSKI>
4

>  <HBD_LIPINSKI>
2

>  <NUM_LIPINSKI_RO5_VIOLATIONS>
1

>  <MW_MONOISOTOPIC>
338.1518

>  <MOLECULAR_SPECIES>
NEUTRAL

>  <FULL_MOLFORMULA>
C21H22O4

$$$$

  SciTegic11201309402D

 51 57  0  0  1  0            999 V2000
   -1.4083    0.2958    0.0000 C   0  0  2  0  0  0
    0.5000   -0.1167    0.0000 C   0  0  2  0  0  0
   -2.1583   -1.0000    0.0000 C   0  0  2  0  0  0
    0.0000    2.0625    0.0000 C   0  0  1  0  0  0
    0.1125   -0.9167    0.0000 C   0  0  2  0  0  0
   -1.4083   -0.5625    0.0000 C   0  0  1  0  0  0
    0.1125    0.6500    0.0000 C   0  0  1  0  0  0
   -1.4208    1.2375    0.0000 C   0  0  1  0  0  0
    0.5667    1.4083    0.0000 C   0  0  1  0  0  0
   -0.7083    0.8458    0.0000 C   0  0  1  0  0  0
    1.4792   -0.1292    0.0000 C   0  0  2  0  0  0
   -2.1583   -0.0167    0.0000 N   0  0
    1.4792    2.0250    0.0000 C   0  0  2  0  0  0
   -0.7083   -1.1167    0.0000 C   0  0  1  0  0  0
   -1.4458   -1.3542    0.0000 C   0  0
   -0.7833    1.7208    0.0000 C   0  0
   -2.1583    0.7333    0.0000 C   0  0  1  0  0  0
    1.8792    1.5208    0.0000 O   0  0
   -2.9208   -0.5625    0.0000 C   0  0  1  0  0  0
    2.8792    1.1208    0.0000 C   0  0
   -2.9208    0.2958    0.0000 C   0  0
    1.1500   -0.8667    0.0000 O   0  0
    1.1542   -1.8417    0.0000 C   0  0
    0.2042    3.0208    0.0000 O   0  0
    3.5792    1.8750    0.0000 O   0  0
    2.9375    0.5083    0.0000 C   0  0
   -2.6583   -1.9125    0.0000 C   0  0
    2.1542   -0.8167    0.0000 O   0  0
    0.2667   -2.3917    0.0000 O   0  0
    2.1875    2.7083    0.0000 O   0  0
   -0.9333   -2.1250    0.0000 O   0  0
   -3.2208    0.0000    0.0000 C   0  0
   -2.1583    1.7708    0.0000 O   0  0
   -3.8375   -1.0792    0.0000 O   0  0
   -1.9583   -2.6792    0.0000 O   0  0
    2.0042   -2.3375    0.0000 C   0  0
    3.7042    0.3708    0.0000 C   0  0
    2.4167   -0.0667    0.0000 C   0  0
   -0.0750   -2.6792    0.0000 C   0  0
    1.7667    3.5958    0.0000 C   0  0
   -3.1458    2.1208    0.0000 C   0  0
   -2.4833   -3.5917    0.0000 C   0  0
   -3.5458    0.9750    0.0000 C   0  0
    3.9542   -0.3542    0.0000 C   0  0
    2.6917   -0.8125    0.0000 C   0  0
    3.4500   -0.9375    0.0000 C   0  0
   -1.1125   -1.5167    0.0000 H   0  0
   -1.1458    1.7333    0.0000 H   0  0
   -1.4708    2.2333    0.0000 H   0  0
    0.9042    0.6208    0.0000 H   0  0
    0.3000   -1.9000    0.0000 H   0  0
  2  7  1  0
  3  6  1  0
  4 16  1  0
  5  8  1  0
  1  6  1  6
  7 10  1  0
  1  8  1  0
  9  7  1  0
 10  1  1  0
 11  2  1  0
 12  8  1  0
 13  4  1  0
 14  6  1  0
 15 12  1  0
 16 10  1  0
 17  1  1  0
  9 18  1  6
 19 21  1  0
 20 18  1  0
 21 17  1  0
  2 22  1  1
 23 22  1  0
  4 24  1  1
 25 20  2  0
 26 20  1  0
  3 27  1  1
 11 28  1  6
 29 23  2  0
 13 30  1  1
 14 31  1  6
 32 12  1  0
 17 33  1  1
 19 34  1  6
 35 27  1  0
 36 23  1  0
 37 26  2  0
 38 26  1  0
 39 31  1  0
 40 30  1  0
 41 33  1  0
 42 35  1  0
 43 32  1  0
 44 37  1  0
 45 38  2  0
 46 45  1  0
  6 47  1  1
 10 48  1  1
  8 49  1  6
  7 50  1  1
  5 51  1  6
  5  2  1  0
 14  5  1  0
  3 19  1  0
  9  4  1  0
  3 15  1  0
 11 13  1  0
 44 46  2  0
M  END
>  <MOLREGNO>
1376017

>  <CHEMBLID>
CHEMBL2103747

>  <SYNONYMS>
ACONITINE

>  <MAX_PHASE>
0

>  <MOLWEIGHT>
645.74

>  <ALOGP>
-.98

>  <PSA>
153.45

>  <HBA>
12

>  <HBD>
3

>  <RO5>
2

>  <RTB>
11

>  <RO3>
N

>  <ACD_MOST_APKA>


>  <ACD_MOST_BPKA>
3.88

>  <ACD_LOGP>
2.14

>  <ACD_LOGD>
2.14

>  <AROMATIC_RINGS>
1

>  <HEAVY_ATOMS>
46

>  <QED_WEIGHTED>
.25

>  <HBA_LIPINSKI>
12

>  <HBD_LIPINSKI>
3

>  <NUM_LIPINSKI_RO5_VIOLATIONS>
1

>  <MW_MONOISOTOPIC>
645.3149

>  <MOLECULAR_SPECIES>
NEUTRAL

>  <FULL_MOLFORMULA>
C34H47NO11

$$$$

  SciTegic11201309402D

 46 52  0  0  0  0            999 V2000
   -2.0416  -16.2000    0.0000 C   0  0
   -2.4500  -15.4875    0.0000 C   0  0  1  0  0  0
   -2.8628  -16.1974    0.0000 C   0  0
   -3.1583  -14.2542    0.0000 C   0  0
   -3.1583  -15.0792    0.0000 C   0  0  1  0  0  0
   -2.4463  -13.8375    0.0000 C   0  0  1  0  0  0
   -1.7360  -15.0792    0.0000 C   0  0  2  0  0  0
   -1.7343  -14.2542    0.0000 C   0  0  2  0  0  0
   -1.0863  -15.5969    0.0000 C   0  0  2  0  0  0
   -0.2772  -15.4109    0.0000 C   0  0  2  0  0  0
    0.0797  -14.6618    0.0000 C   0  0  2  0  0  0
   -1.0872  -13.7328    0.0000 C   0  0  1  0  0  0
   -0.2778  -13.9154    0.0000 C   0  0  2  0  0  0
    0.1461  -13.2020    0.0000 C   0  0  2  0  0  0
   -0.4014  -12.5785    0.0000 C   0  0  2  0  0  0
   -1.1635  -12.9066    0.0000 C   0  0
    0.4209  -12.5750    0.0000 C   0  0  2  0  0  0
    0.6625  -14.0709    0.0000 C   0  0  2  0  0  0
    0.9544  -11.9458    0.0000 O   0  0
    0.6762  -11.1691    0.0000 C   0  0
   -0.4083  -11.7500    0.0000 O   0  0
    0.7212  -13.9601    0.0000 H   0  0
   -2.0082  -13.3432    0.0000 H   0  0
   -2.3291  -14.6292    0.0000 N   0  0
   -1.7416  -13.4292    0.0000 C   0  0
   -3.6083  -14.6292    0.0000 C   0  0
   -2.4564  -16.9132    0.0000 O   0  0
   -1.8126  -16.0763    0.0000 H   0  0
   -2.4463  -13.0125    0.0000 O   0  0
   -3.1608  -12.6000    0.0000 C   0  0
    0.9500  -13.2209    0.0000 O   0  0
   -2.0462  -17.6290    0.0000 C   0  0
    0.4875  -15.3709    0.0000 O   0  0
    1.6541  -12.7909    0.0000 C   0  0
    2.3785  -13.1857    0.0000 C   0  0
    2.3963  -14.0094    0.0000 C   0  0
    3.1199  -14.4042    0.0000 C   0  0
    3.8250  -13.9741    0.0000 C   0  0
    3.8019  -13.1452    0.0000 C   0  0
    3.0779  -12.7542    0.0000 C   0  0
    1.6338  -11.9662    0.0000 O   0  0
   -3.8726  -15.4919    0.0000 O   0  0
    1.4484  -14.3219    0.0000 O   0  0
   -1.2691  -16.4014    0.0000 O   0  0
   -0.6638  -16.9619    0.0000 C   0  0
   -0.9029  -14.6309    0.0000 H   0  0
  9 10  1  0
 13 22  1  1
  4  6  1  0
 12 23  1  1
 13 11  1  0
  3 24  1  0
 10 11  1  0
  8 25  1  6
 24 25  1  0
 12 13  1  0
 24 26  1  0
  5  2  1  0
  1 27  1  0
  2  7  1  0
  7 28  1  1
 10 25  1  0
  8  6  1  0
  4  5  1  0
  6 29  1  6
 29 30  1  0
 13 14  1  0
 14 31  1  6
 14 15  1  0
 27 32  1  0
 15 16  1  0
 11 33  1  1
 16 12  1  0
 31 34  1  0
  7  8  1  0
 34 35  1  0
 15 17  1  0
 35 36  2  0
  8 12  1  0
 36 37  1  0
 11 18  1  0
 37 38  2  0
 17 18  1  0
 38 39  1  0
  2  1  1  1
 39 40  2  0
 40 35  1  0
 17 19  1  1
 34 41  2  0
  7  9  1  0
  5 42  1  6
 19 20  1  0
 18 43  1  6
  3  2  1  0
  9 44  1  6
 15 21  1  1
 44 45  1  0
 10 46  1  6
M  END
>  <MOLREGNO>
1356345

>  <CHEMBLID>
CHEMBL2062952

>  <SYNONYMS>
Benzoylmesaconine

>  <MAX_PHASE>
0

>  <MOLWEIGHT>
589.67

>  <ALOGP>
-1.71

>  <PSA>
147.38

>  <HBA>
11

>  <HBD>
4

>  <RO5>
2

>  <RTB>
8

>  <RO3>
N

>  <ACD_MOST_APKA>
8.2

>  <ACD_MOST_BPKA>
1

>  <ACD_LOGP>
1.77

>  <ACD_LOGD>
1.7

>  <AROMATIC_RINGS>
1

>  <HEAVY_ATOMS>
42

>  <QED_WEIGHTED>
.26

>  <HBA_LIPINSKI>
11

>  <HBD_LIPINSKI>
4

>  <NUM_LIPINSKI_RO5_VIOLATIONS>
1

>  <MW_MONOISOTOPIC>
589.2887

>  <MOLECULAR_SPECIES>
NEUTRAL

>  <FULL_MOLFORMULA>
C31H43NO10

$$$$

  SciTegic11201309402D

 31 36  0  0  0  0            999 V2000
    2.0094  -12.4105    0.0000 C   0  0
    2.0094  -13.1435    0.0000 C   0  0
    2.6419  -13.5091    0.0000 C   0  0  1  0  0  0
    2.6419  -12.0389    0.0000 C   0  0  2  0  0  0
    3.0049  -14.1454    0.0000 C   0  0
    2.1122  -14.0300    0.0000 C   0  0
    2.6419  -11.2992    0.0000 O   0  0
    3.3232  -11.7939    0.0000 C   0  0  2  0  0  0
    2.3709  -12.6293    0.0000 N   0  0
    3.3169  -11.0567    0.0000 H   0  0
    1.6722  -12.3903    0.0000 C   0  0
    1.6802  -11.4561    0.0000 C   0  0
    3.2711  -13.8735    0.0000 H   0  0
    3.2804  -12.4093    0.0000 C   0  0  2  0  0  0
    3.2798  -13.1400    0.0000 C   0  0  2  0  0  0
    3.9097  -13.5007    0.0000 C   0  0
    4.5429  -13.1413    0.0000 C   0  0  2  0  0  0
    3.9111  -12.0433    0.0000 C   0  0  1  0  0  0
    4.5473  -12.4078    0.0000 C   0  0  2  0  0  0
    5.1788  -12.0455    0.0000 C   0  0
    5.1791  -11.3119    0.0000 C   0  0  1  0  0  0
    4.5427  -10.9430    0.0000 C   0  0
    3.9020  -11.3121    0.0000 C   0  0
    4.4203  -11.5250    0.0000 H   0  0
    4.5409  -10.2126    0.0000 O   0  0
    5.1783  -12.7691    0.0000 C   0  0  1  0  0  0
    5.8108  -11.6767    0.0000 C   0  0
    6.5691  -11.4705    0.0000 C   0  0
    5.3813  -13.5261    0.0000 O   0  0
    4.7421  -13.8972    0.0000 H   0  0
    5.6955  -10.7913    0.0000 H   0  0
  1  2  1  0
  1  4  1  0
  2  3  1  0
  3 15  1  0
 14  4  1  1
  3  5  1  1
  3  6  1  0
  4  7  1  6
 14  8  1  0
  8  9  1  0
  6  9  1  0
  8 10  1  1
  9 11  1  0
 11 12  1  0
 15 13  1  1
 14 15  1  0
 14 18  1  0
 15 16  1  0
 16 17  1  0
 17 19  1  0
 18 19  1  0
 18 23  1  0
 19 20  1  6
 21 20  1  0
 21 22  1  0
 22 23  1  0
  8 17  1  0
 18 24  1  1
 22 25  2  0
 19 26  1  0
 21 27  1  0
 26 27  1  0
 27 28  2  0
 26 29  1  1
 17 30  1  6
 21 31  1  6
M  END
>  <MOLREGNO>
1429019

>  <CHEMBLID>
CHEMBL2165580

>  <SYNONYMS>
Songorine

>  <MAX_PHASE>
0

>  <MOLWEIGHT>
357.49

>  <ALOGP>
1.04

>  <PSA>
60.77

>  <HBA>
4

>  <HBD>
2

>  <RO5>
0

>  <RTB>
1

>  <RO3>
N

>  <ACD_MOST_APKA>


>  <ACD_MOST_BPKA>
4.38

>  <ACD_LOGP>
3.45

>  <ACD_LOGD>
3.45

>  <AROMATIC_RINGS>
0

>  <HEAVY_ATOMS>
26

>  <QED_WEIGHTED>
.69

>  <HBA_LIPINSKI>
4

>  <HBD_LIPINSKI>
2

>  <NUM_LIPINSKI_RO5_VIOLATIONS>
0

>  <MW_MONOISOTOPIC>
357.2304

>  <MOLECULAR_SPECIES>
NEUTRAL

>  <FULL_MOLFORMULA>
C22H31NO3

$$$$

  SciTegic09081514182D

 49 55  0  0  0  0            999 V2000
    0.6796   -1.2822    0.0000 C   0  0  1  0  0  0
    1.9058   -1.0650    0.0000 C   0  0  2  0  0  0
   -2.3052    0.7287    0.0000 C   0  0
   -2.2982   -0.5465    0.0000 C   0  0  2  0  0  0
   -1.1841   -1.1841    0.0000 C   0  0  2  0  0  0
   -1.1981    1.3733    0.0000 C   0  0  1  0  0  0
   -0.0841    0.7357    0.0000 C   0  0  2  0  0  0
   -0.0771   -0.5325    0.0000 C   0  0  2  0  0  0
    2.4944    0.0841    0.0000 C   0  0  2  0  0  0
    0.6937    1.5064    0.0000 C   0  0  1  0  0  0
    1.9198    1.2752    0.0000 C   0  0  2  0  0  0
    2.5224    2.3752    0.0000 C   0  0  2  0  0  0
    1.6536    3.2791    0.0000 C   0  0  2  0  0  0
    0.5255    2.7396    0.0000 C   0  0
    4.1059    3.2791    0.0000 C   0  0  2  0  0  0
    4.4632    2.0459    0.0000 C   0  0  2  0  0  0
   -0.2533    1.8278    0.0000 H   0  0
    2.9195    1.2494    0.0000 H   0  0
    1.9190    2.1088    0.0000 O   0  0
   -0.2011   -1.5248    0.0000 H   0  0
    2.2935   -1.3884    0.0000 O   0  0
   -0.6930    2.7889    0.0000 O   0  0
   -1.4696    3.7037    0.0000 C   0  0
   -0.0841    1.8497    0.0000 C   0  0
   -2.1650   -1.4293    0.0000 C   0  0
   -1.1701    0.1892    0.0000 N   0  0
   -0.7080    0.2461    0.0000 C   0  0
   -1.6943    1.3774    0.0000 O   0  0
   -2.8720    1.1474    0.0000 C   0  0
    5.4446    3.9391    0.0000 O   0  0
   -2.1835    0.8318    0.0000 C   0  0
    3.7878    1.5680    0.0000 O   0  0
    5.6251    1.7461    0.0000 O   0  0
    3.4701   -2.3202    0.0000 C   0  0
    4.5855   -1.8777    0.0000 C   0  0
    5.5290    5.1362    0.0000 C   0  0
    4.2391    0.1366    0.0000 C   0  0
    3.4281   -0.7479    0.0000 O   0  0
    5.7041   -0.1892    0.0000 C   0  0
    6.1573   -1.6191    0.0000 C   0  0
    7.6222   -1.9417    0.0000 C   0  0
    8.6340   -0.8344    0.0000 C   0  0
    8.1810    0.5956    0.0000 C   0  0
    6.7161    0.9182    0.0000 C   0  0
    1.3115   -0.2608    0.0000 H   0  0
   -0.2862   -2.4365    0.0000 O   0  0
    0.1242   -3.5641    0.0000 C   0  0
   -3.3346   -1.1513    0.0000 O   0  0
    3.2960   -3.5075    0.0000 O   0  0
  1  2  1  0
  3  4  1  0
  3  6  1  0
  4  5  1  0
  5  8  1  0
  7  6  1  0
  7  8  1  0
  7 10  1  0
  9 11  1  0
  1  8  1  0
  2  9  1  0
 10 11  1  0
 11 12  1  0
 12 13  1  0
 13 14  1  0
 14 10  1  0
 13 15  1  0
  9 16  1  0
 15 16  1  0
 10 17  1  1
 11 18  1  1
 13 19  1  1
  8 20  1  1
  9 21  1  1
  6 22  1  6
 22 23  1  0
  7 24  1  6
  2 24  1  0
  5 25  1  0
 24 26  1  0
 26 25  1  0
  5 27  1  1
 27 28  1  0
 28 29  1  0
 15 30  1  1
 26 31  1  0
 12 32  1  6
 16 33  1  6
 21 34  1  0
 34 35  1  0
 30 36  1  0
 32 37  1  0
 37 38  2  0
 37 39  1  0
 39 40  2  0
 40 41  1  0
 41 42  2  0
 42 43  1  0
 43 44  2  0
 44 39  1  0
  2 45  1  6
  1 46  1  6
 46 47  1  0
  4 48  1  6
 34 49  2  0
M  END
>  <MOLREGNO>
1830499

>  <CHEMBLID>
CHEMBL3400310

>  <SYNONYMS>


>  <MAX_PHASE>
0

>  <MOLWEIGHT>
631.71

>  <ALOGP>
-1.33

>  <PSA>
153.45

>  <HBA>
12

>  <HBD>
3

>  <RO5>
2

>  <RTB>
10

>  <RO3>
N

>  <ACD_MOST_APKA>
4.1

>  <ACD_MOST_BPKA>


>  <ACD_LOGP>
5.45

>  <ACD_LOGD>
2.26

>  <AROMATIC_RINGS>
1

>  <HEAVY_ATOMS>
45

>  <QED_WEIGHTED>
.26

>  <HBA_LIPINSKI>
12

>  <HBD_LIPINSKI>
3

>  <NUM_LIPINSKI_RO5_VIOLATIONS>
1

>  <MW_MONOISOTOPIC>
631.2993

>  <MOLECULAR_SPECIES>
ACID

>  <FULL_MOLFORMULA>
C33H45NO11

$$$$

  SciTegic10191216022D

 47 53  0  0  1  0            999 V2000
    1.8583  -12.7292    0.0000 N   0  0
    1.1416  -12.2292    0.0000 C   0  0
    1.1416  -13.0542    0.0000 C   0  0
    1.8537  -13.4625    0.0000 C   0  0  2  0  0  0
    1.8537  -11.8125    0.0000 C   0  0  1  0  0  0
    2.5695  -13.0521    0.0000 C   0  0  2  0  0  0
    2.5657  -12.2292    0.0000 C   0  0  2  0  0  0
    3.2211  -13.5642    0.0000 C   0  0  2  0  0  0
    4.0269  -13.3732    0.0000 C   0  0
    4.3779  -12.6236    0.0000 C   0  0  1  0  0  0
    3.2124  -11.7092    0.0000 C   0  0  1  0  0  0
    4.0162  -11.8814    0.0000 C   0  0  2  0  0  0
    4.4285  -11.1701    0.0000 C   0  0  2  0  0  0
    3.8794  -10.5582    0.0000 C   0  0  2  0  0  0
    3.1279  -10.8914    0.0000 C   0  0
    4.9583  -13.2042    0.0000 O   0  0
    1.1333  -13.8708    0.0000 C   0  0
    2.5583  -11.4042    0.0000 C   0  0
    4.7583  -12.1958    0.0000 C   0  0  2  0  0  0
    4.5375  -10.3833    0.0000 C   0  0  2  0  0  0
    5.6208   -9.9542    0.0000 O   0  0
    6.4192  -10.1620    0.0000 C   0  0
    2.2583  -14.1750    0.0000 C   0  0
    1.8407  -14.8865    0.0000 O   0  0
    2.2482  -15.6039    0.0000 C   0  0
    1.8537  -10.9875    0.0000 O   0  0
    3.8750   -9.7292    0.0000 O   0  0
    5.2491  -11.0853    0.0000 O   0  0
    3.7916  -11.1208    0.0000 H   0  0
    5.1000  -11.8792    0.0000 H   0  0
    2.5625  -13.8750    0.0000 H   0  0
    3.2166  -14.3875    0.0000 O   0  0
    0.9166  -12.7292    0.0000 C   0  0
    1.1392  -10.5750    0.0000 C   0  0
    5.4708  -12.6083    0.0000 O   0  0
    5.9583  -11.4958    0.0000 C   0  0
    6.6732  -11.0842    0.0000 C   0  0
    7.3848  -11.5021    0.0000 C   0  0
    8.0993  -11.0912    0.0000 C   0  0
    8.1007  -10.2653    0.0000 C   0  0
    7.3817   -9.8521    0.0000 C   0  0
    6.6702  -10.2655    0.0000 C   0  0
    3.9289  -14.8038    0.0000 C   0  0
    5.6708  -13.6167    0.0000 C   0  0
    5.6698  -14.4417    0.0000 O   0  0
    6.3858  -13.2050    0.0000 C   0  0
    5.9542  -12.2583    0.0000 O   0  0
 14 20  1  0
  9 10  1  0
 20 21  1  1
 11 12  1  0
 21 22  1  0
  7  5  1  0
  4 23  1  1
 23 24  1  0
  2  3  1  0
 24 25  1  0
  6  7  1  0
  5 26  1  6
  7 11  1  0
 14 27  1  1
 12 13  1  0
 13 28  1  6
 13 14  1  0
 11 29  1  1
 14 15  1  0
 12 30  1  1
 15 11  1  0
  6 31  1  1
  2  5  1  0
  8 32  1  6
  1 33  1  0
  6  8  1  0
 26 34  1  0
 10 16  1  1
 19 35  1  6
  3  4  1  0
 28 36  1  0
  4 17  1  0
 36 37  1  0
  8  9  1  0
 37 38  2  0
  7 18  1  6
 38 39  1  0
  1 17  1  0
 39 40  2  0
 18  1  1  0
 40 41  1  0
 18  9  1  0
 41 42  2  0
 42 37  1  0
  4  6  1  0
 32 43  1  0
 10 19  1  0
 16 44  1  0
 12 10  1  0
 44 45  2  0
 19 20  1  0
 44 46  1  0
 36 47  2  0
M  END
>  <MOLREGNO>
420917

>  <CHEMBLID>
CHEMBL400315

>  <SYNONYMS>
Hypaconitine

>  <MAX_PHASE>
0

>  <MOLWEIGHT>
615.71

>  <ALOGP>
-.1

>  <PSA>
133.22

>  <HBA>
11

>  <HBD>
2

>  <RO5>
2

>  <RTB>
10

>  <RO3>
N

>  <ACD_MOST_APKA>
12.21

>  <ACD_MOST_BPKA>
5.67

>  <ACD_LOGP>
1.05

>  <ACD_LOGD>
1.04

>  <AROMATIC_RINGS>
1

>  <HEAVY_ATOMS>
44

>  <QED_WEIGHTED>
.34

>  <HBA_LIPINSKI>
11

>  <HBD_LIPINSKI>
2

>  <NUM_LIPINSKI_RO5_VIOLATIONS>
1

>  <MW_MONOISOTOPIC>
615.3043

>  <MOLECULAR_SPECIES>
NEUTRAL

>  <FULL_MOLFORMULA>
C33H45NO10

$$$$

  SciTegic05071316162D

 47 53  0  0  0  0            999 V2000
   19.5526  -10.8200    0.0000 C   0  0
   19.5526  -11.6478    0.0000 C   0  0  2  0  0  0
   20.2624  -12.0526    0.0000 C   0  0  2  0  0  0
   20.2624  -10.4015    0.0000 C   0  0  1  0  0  0
   20.9786  -11.6444    0.0000 C   0  0  2  0  0  0
   20.9722  -10.8200    0.0000 C   0  0  2  0  0  0
   21.6297  -12.1520    0.0000 C   0  0  2  0  0  0
   22.4350  -11.9646    0.0000 C   0  0  2  0  0  0
   22.7862  -11.2154    0.0000 C   0  0  2  0  0  0
   21.6200  -10.3038    0.0000 C   0  0  1  0  0  0
   22.4266  -10.4741    0.0000 C   0  0  2  0  0  0
   22.8379   -9.7610    0.0000 C   0  0  2  0  0  0
   22.2874   -9.1479    0.0000 C   0  0  2  0  0  0
   21.5353   -9.4834    0.0000 C   0  0
   19.6699  -12.6322    0.0000 C   0  0
   20.6657  -12.7633    0.0000 C   0  0
   20.9647   -9.9921    0.0000 C   0  0
   23.6593   -9.6747    0.0000 O   0  0
   23.1103   -9.1458    0.0000 C   0  0  2  0  0  0
   23.6096  -11.2095    0.0000 C   0  0
   23.6213   -8.4935    0.0000 O   0  0
   24.4357   -8.6115    0.0000 C   0  0
   23.3655  -11.7950    0.0000 O   0  0
   20.3321  -11.1305    0.0000 N   0  0
   19.7458  -10.5440    0.0000 C   0  0
   18.9461  -10.7596    0.0000 C   0  0
   20.2624   -9.5781    0.0000 O   0  0
   21.4510  -12.9571    0.0000 O   0  0
   22.0593  -13.5152    0.0000 C   0  0
   20.9763   -9.1665    0.0000 C   0  0
   20.2503  -13.4768    0.0000 O   0  0
   20.6581  -14.1954    0.0000 C   0  0
   22.0764   -8.3483    0.0000 O   0  0
   24.2805  -10.2216    0.0000 C   0  0
   25.0671   -9.9548    0.0000 C   0  0
   24.1195  -11.0310    0.0000 O   0  0
   25.6847  -10.5038    0.0000 C   0  0
   26.4663  -10.2375    0.0000 C   0  0
   26.6278   -9.4274    0.0000 C   0  0
   26.0019   -8.8796    0.0000 C   0  0
   25.2227   -9.1488    0.0000 C   0  0
   27.4105   -9.1592    0.0000 O   0  0
   28.0330   -9.7061    0.0000 C   0  0
   24.1550  -11.5808    0.0000 C   0  0
   24.7343  -12.1602    0.0000 O   0  0
   18.8373  -12.0585    0.0000 O   0  0
   24.7384  -10.9974    0.0000 C   0  0
  1  2  1  0
  1  4  1  0
  2  3  1  0
  5  3  1  6
  6  4  1  0
  5  6  1  0
  6 10  1  0
  5  7  1  0
  7  8  1  0
 11  9  1  6
  8  9  1  0
 10 11  1  0
 11 12  1  0
 12 13  1  0
 13 14  1  0
 10 14  1  6
  3 15  1  0
  3 16  1  1
  6 17  1  6
 12 18  1  6
 13 19  1  0
  9 20  1  0
 19 20  1  0
 19 21  1  1
 21 22  1  0
  9 23  1  1
  8 17  1  6
 15 24  1  0
 24 17  1  0
 24 25  1  0
 25 26  1  0
  4 27  1  6
  7 28  1  6
 28 29  1  0
 27 30  1  0
 16 31  1  0
 31 32  1  0
 13 33  1  1
 18 34  1  0
 34 35  1  0
 34 36  2  0
 35 37  2  0
 37 38  1  0
 38 39  2  0
 39 40  1  0
 40 41  2  0
 41 35  1  0
 39 42  1  0
 42 43  1  0
 23 44  1  0
 44 45  2  0
  2 46  1  6
 44 47  1  0
M  END
>  <MOLREGNO>
1461931

>  <CHEMBLID>
CHEMBL2227789

>  <SYNONYMS>


>  <MAX_PHASE>
0

>  <MOLWEIGHT>
659.76

>  <ALOGP>
-.42

>  <PSA>
142.45

>  <HBA>
12

>  <HBD>
2

>  <RO5>
2

>  <RTB>
12

>  <RO3>
N

>  <ACD_MOST_APKA>
6.86

>  <ACD_MOST_BPKA>


>  <ACD_LOGP>
2.67

>  <ACD_LOGD>
2.04

>  <AROMATIC_RINGS>
1

>  <HEAVY_ATOMS>
47

>  <QED_WEIGHTED>
.28

>  <HBA_LIPINSKI>
12

>  <HBD_LIPINSKI>
2

>  <NUM_LIPINSKI_RO5_VIOLATIONS>
1

>  <MW_MONOISOTOPIC>
659.3306

>  <MOLECULAR_SPECIES>
NEUTRAL

>  <FULL_MOLFORMULA>
C35H49NO11

$$$$

  SciTegic11201309402D

 44 50  0  0  1  0            999 V2000
    6.4167   -2.4125    0.0000 C   0  0  2  0  0  0
    6.7792   -3.1875    0.0000 C   0  0  1  0  0  0
    5.1167   -2.7625    0.0000 C   0  0  2  0  0  0
    5.1125   -1.9375    0.0000 C   0  0
    6.4000   -3.9292    0.0000 C   0  0  2  0  0  0
    5.6292   -2.2667    0.0000 C   0  0
    5.1167   -3.5792    0.0000 C   0  0
    4.4042   -4.0000    0.0000 C   0  0  2  0  0  0
    4.3500   -3.2042    0.0000 N   0  0
    6.7917   -1.7125    0.0000 C   0  0  2  0  0  0
    6.2417   -1.1292    0.0000 C   0  0  2  0  0  0
    3.7000   -5.2375    0.0000 C   0  0
    8.8917   -2.2250    0.0000 C   0  0
    3.6917   -6.0625    0.0000 C   0  0
    5.6125   -4.0625    0.0000 C   0  0
    5.5167   -1.4792    0.0000 C   0  0
    4.4125   -4.8250    0.0000 O   0  0
    3.8167   -4.5792    0.0000 C   0  0
    8.9000   -1.4000    0.0000 C   0  0  2  0  0  0
    4.4042   -6.4750    0.0000 C   0  0
    5.1167   -6.0542    0.0000 N   0  0
    4.4042   -2.3500    0.0000 C   0  0  2  0  0  0
    5.7000   -6.6375    0.0000 C   0  0
    3.6917   -3.5917    0.0000 C   0  0
    2.9792   -4.8250    0.0000 O   0  0
    7.0750   -2.3917    0.0000 O   0  0
    7.4917   -3.6000    0.0000 O   0  0
    5.6917   -7.4625    0.0000 O   0  0
    3.6875   -2.7625    0.0000 C   0  0
    7.6167   -1.7125    0.0000 O   0  0
    3.0042   -3.2042    0.0000 C   0  0
    9.4792   -0.8125    0.0000 O   0  0
    2.9750   -6.4667    0.0000 C   0  0
    4.4000   -1.5250    0.0000 O   0  0
    4.4042   -7.3000    0.0000 C   0  0
    6.4125   -6.2167    0.0000 C   0  0
    8.0250   -2.4250    0.0000 C   0  0
   10.1917   -1.2250    0.0000 C   0  0
    3.6792   -1.1125    0.0000 C   0  0
    2.0542   -4.1500    0.0000 C   0  0
    2.9667   -7.2917    0.0000 C   0  0
    3.6792   -7.7125    0.0000 C   0  0
    6.4149   -2.1141    0.0000 H   0  0
    5.8085   -3.1229    0.0000 H   0  0
  2  1  1  0
  3  6  1  1
  3  4  1  0
  5  2  1  0
  6  1  1  0
  7  3  1  0
  8  7  1  0
  9  4  1  0
 10  1  1  0
 11 10  1  0
 12 17  1  0
  2 13  1  0
 14 12  1  0
 15  5  1  0
 16  6  1  0
  8 17  1  1
  8 18  1  0
 11 19  1  0
 20 14  2  0
 21 20  1  0
 22  3  1  0
 23 21  1  0
 24 29  1  0
 25 12  2  0
  1 26  1  1
  2 27  1  1
 28 23  2  0
 29 22  1  0
 10 30  1  6
 31  9  1  0
 19 32  1  1
 33 14  1  0
 22 34  1  6
 35 20  1  0
 36 23  1  0
 37 30  1  0
 38 32  1  0
 39 34  1  0
 40 31  1  0
 41 33  2  0
 42 41  1  0
 16 11  1  0
  5  4  1  0
 13 19  1  0
 15  7  1  0
 24  8  1  0
  9 18  1  0
 42 35  2  0
 11 43  1  1
  5 44  1  6
M  END
>  <MOLREGNO>
1385100

>  <CHEMBLID>
CHEMBL2112849

>  <SYNONYMS>
Lappaconitine

>  <MAX_PHASE>
0

>  <MOLWEIGHT>
584.7

>  <ALOGP>
.03

>  <PSA>
126.79

>  <HBA>
9

>  <HBD>
3

>  <RO5>
1

>  <RTB>
8

>  <RO3>
N

>  <ACD_MOST_APKA>
12.55

>  <ACD_MOST_BPKA>
5.47

>  <ACD_LOGP>
1.79

>  <ACD_LOGD>
1.78

>  <AROMATIC_RINGS>
1

>  <HEAVY_ATOMS>
42

>  <QED_WEIGHTED>
.36

>  <HBA_LIPINSKI>
10

>  <HBD_LIPINSKI>
3

>  <NUM_LIPINSKI_RO5_VIOLATIONS>
0

>  <MW_MONOISOTOPIC>
584.3098

>  <MOLECULAR_SPECIES>
NEUTRAL

>  <FULL_MOLFORMULA>
C32H44N2O8

$$$$

  SciTegic12131016252D

 32 37  0  0  0  0            999 V2000
   15.4500   -1.5125    0.0000 C   0  0  1  0  0  0
   15.8625   -0.7625    0.0000 C   0  0  2  0  0  0
   14.0625   -0.3125    0.0000 C   0  0  2  0  0  0
   14.0583    0.5125    0.0000 C   0  0
   15.5375    0.0000    0.0000 C   0  0  2  0  0  0
   14.7333    0.2042    0.0000 C   0  0  1  0  0  0
   14.0625   -1.1208    0.0000 C   0  0  2  0  0  0
   14.6750   -1.6500    0.0000 C   0  0
   15.9875    0.7000    0.0000 C   0  0  2  0  0  0
   15.4500    1.3375    0.0000 C   0  0  2  0  0  0
   13.3375   -0.7625    0.0000 N   0  0
   17.2375   -0.7625    0.0000 C   0  0
   13.3708   -1.5250    0.0000 C   0  0  1  0  0  0
   14.6833    1.0375    0.0000 C   0  0
   17.2375    1.3292    0.0000 C   0  0  2  0  0  0
   12.6500   -1.9375    0.0000 C   0  0
   13.3625    0.0875    0.0000 C   0  0  2  0  0  0
   13.7750   -2.2375    0.0000 C   0  0
   16.1625   -1.9250    0.0000 H   0  0
   12.6625   -1.1250    0.0000 C   0  0
   16.5750   -1.1750    0.0000 O   0  0
   12.6625   -0.3125    0.0000 C   0  0
   16.8125    0.7000    0.0000 O   0  0
   17.9375    1.7625    0.0000 O   0  0
   13.3583    0.9125    0.0000 O   0  0
   17.9125    2.5875    0.0000 C   0  0
   15.4500    2.1625    0.0000 H   0  0
   14.0625   -1.9458    0.0000 H   0  0
   15.3125    0.7917    0.0000 H   0  0
   16.3375   -0.2125    0.0000 H   0  0
   12.5125   -0.7625    0.0000 C   0  0
   12.1000   -0.0480    0.0000 C   0  0
  3  4  1  6
  4  1  1  0
  5  2  1  0
  6  3  1  0
  7  8  1  0
  8  1  1  0
  9  5  1  0
 10 15  1  0
 11  4  1  0
 12  2  1  0
 13  7  1  0
 14  6  1  0
 15 12  1  0
 16 11  1  0
 17  3  1  0
 13 18  1  1
  1 19  1  1
 20 13  1  0
  2 21  1  1
 22 17  1  0
  9 23  1  6
 15 24  1  1
 17 25  1  6
 26 24  1  0
 10 27  1  1
  7 28  1  1
  6 29  1  1
  5 30  1  1
  7  3  1  0
 13 16  1  0
  6  5  1  0
 22 20  1  0
 10 14  1  0
  9 10  1  0
 11 31  1  0
  2  1  1  0
 31 32  1  0
M  END
>  <MOLREGNO>
701667

>  <CHEMBLID>
CHEMBL1242438

>  <SYNONYMS>
Karacoline | Karakoline

>  <MAX_PHASE>
0

>  <MOLWEIGHT>
377.52

>  <ALOGP>
-.05

>  <PSA>
73.16

>  <HBA>
5

>  <HBD>
3

>  <RO5>
0

>  <RTB>
2

>  <RO3>
N

>  <ACD_MOST_APKA>
13.8

>  <ACD_MOST_BPKA>
8.53

>  <ACD_LOGP>
1.28

>  <ACD_LOGD>
-.25

>  <AROMATIC_RINGS>
0

>  <HEAVY_ATOMS>
27

>  <QED_WEIGHTED>
.63

>  <HBA_LIPINSKI>
5

>  <HBD_LIPINSKI>
3

>  <NUM_LIPINSKI_RO5_VIOLATIONS>
0

>  <MW_MONOISOTOPIC>
377.2566

>  <MOLECULAR_SPECIES>
BASE

>  <FULL_MOLFORMULA>
C22H35NO4

$$$$

  SciTegic01311317052D

 27 32  0  0  1  0            999 V2000
    5.1125   -4.2167    0.0000 C   0  0  2  0  0  0
    6.7750   -4.6417    0.0000 C   0  0  1  0  0  0
    6.4125   -3.8667    0.0000 C   0  0
    5.1042   -3.3792    0.0000 C   0  0
    6.3917   -5.3792    0.0000 C   0  0  2  0  0  0
    5.6250   -3.7167    0.0000 C   0  0
    5.1167   -5.0292    0.0000 C   0  0
    4.3417   -4.6542    0.0000 N   0  0
    6.7875   -3.1667    0.0000 C   0  0  2  0  0  0
    6.2375   -2.5792    0.0000 C   0  0  2  0  0  0
    4.4042   -5.4417    0.0000 C   0  0  2  0  0  0
    8.8917   -3.6667    0.0000 C   0  0
    5.6042   -5.5167    0.0000 C   0  0
    5.5167   -2.9292    0.0000 C   0  0
    8.8917   -2.8417    0.0000 C   0  0  2  0  0  0
    3.8167   -6.0292    0.0000 C   0  0
    4.4000   -3.8042    0.0000 C   0  0  2  0  0  0
    3.6875   -5.0417    0.0000 C   0  0
    7.4875   -5.0542    0.0000 O   0  0
    3.6792   -4.2167    0.0000 C   0  0
    7.6125   -3.1542    0.0000 O   0  0
    3.0042   -4.6542    0.0000 C   0  0
    9.4792   -2.2542    0.0000 O   0  0
    4.4042   -6.2667    0.0000 C   0  0
    4.3917   -2.9667    0.0000 O   0  0
   10.1917   -2.6667    0.0000 C   0  0
    2.0542   -5.5917    0.0000 C   0  0
  2  3  1  0
  3  6  1  0
  1  4  1  6
  6  1  1  0
  7  1  1  0
  8  4  1  0
  9  3  1  0
 10 14  1  0
 11  7  1  0
  2 12  1  6
 13  7  1  0
 14  6  1  0
 10 15  1  6
 11 16  1  6
 17  1  1  0
 18 20  1  0
  2 19  1  1
 20 17  1  0
  9 21  1  6
 22  8  1  0
 15 23  1  1
 11 24  1  1
 17 25  1  6
 26 23  1  0
 27 22  1  0
  5 13  1  0
  2  5  1  0
 18 11  1  0
  8 16  1  0
 10  9  1  0
 12 15  1  0
  5  4  1  6
M  END
>  <MOLREGNO>
1385098

>  <CHEMBLID>
CHEMBL2112847

>  <SYNONYMS>


>  <MAX_PHASE>
0

>  <MOLWEIGHT>
377.52

>  <ALOGP>
-.05

>  <PSA>
73.16

>  <HBA>
5

>  <HBD>
3

>  <RO5>
0

>  <RTB>
2

>  <RO3>
N

>  <ACD_MOST_APKA>
13.8

>  <ACD_MOST_BPKA>
8.53

>  <ACD_LOGP>
1.28

>  <ACD_LOGD>
-.25

>  <AROMATIC_RINGS>
0

>  <HEAVY_ATOMS>
27

>  <QED_WEIGHTED>
.63

>  <HBA_LIPINSKI>
5

>  <HBD_LIPINSKI>
3

>  <NUM_LIPINSKI_RO5_VIOLATIONS>
0

>  <MW_MONOISOTOPIC>
377.2566

>  <MOLECULAR_SPECIES>
BASE

>  <FULL_MOLFORMULA>
C22H35NO4

$$$$

  SciTegic05071316162D

 46 52  0  0  0  0            999 V2000
   28.8856  -21.3881    0.0000 C   0  0  2  0  0  0
   30.0554  -22.4637    0.0000 C   0  0
   26.7405  -22.2342    0.0000 C   0  0
   26.0384  -22.6435    0.0000 C   0  0  2  0  0  0
   26.7481  -23.0619    0.0000 C   0  0  2  0  0  0
   29.8945  -23.2729    0.0000 O   0  0
   30.9975  -21.3911    0.0000 C   0  0
   29.4345  -21.9169    0.0000 O   0  0
   25.3288  -23.0619    0.0000 C   0  0
   29.3847  -23.4514    0.0000 C   0  0
   25.5219  -22.7860    0.0000 C   0  0
   27.3109  -21.7257    0.0000 C   0  0
   29.3965  -20.7360    0.0000 O   0  0
   31.4594  -22.7458    0.0000 C   0  0
   26.0384  -24.2943    0.0000 C   0  0  1  0  0  0
   25.3288  -23.8896    0.0000 C   0  0
   24.7224  -23.0015    0.0000 C   0  0
   25.4460  -24.8737    0.0000 C   0  0
   28.2020  -22.7161    0.0000 C   0  0  1  0  0  0
   27.3956  -22.5459    0.0000 C   0  0  2  0  0  0
   26.7544  -23.8862    0.0000 C   0  0  1  0  0  0
   26.1081  -23.3724    0.0000 N   0  0
   28.2105  -24.2063    0.0000 C   0  0  1  0  0  0
   28.5616  -23.4573    0.0000 C   0  0  1  0  0  0
   28.6133  -22.0031    0.0000 C   0  0  2  0  0  0
   30.8420  -22.1969    0.0000 C   0  0
   33.8072  -21.9482    0.0000 C   0  0
   26.0263  -25.7181    0.0000 O   0  0
   27.4053  -24.3936    0.0000 C   0  0  2  0  0  0
   32.4023  -21.6697    0.0000 C   0  0
   26.4416  -25.0048    0.0000 C   0  0
   27.8520  -20.5908    0.0000 O   0  0
   30.2107  -20.8540    0.0000 C   0  0
   27.8348  -25.7565    0.0000 C   0  0
   26.0384  -21.8204    0.0000 O   0  0
   28.0629  -21.3903    0.0000 C   0  0  1  0  0  0
   29.1408  -24.0367    0.0000 O   0  0
   31.7765  -21.1220    0.0000 C   0  0
   27.2266  -25.1985    0.0000 O   0  0
   32.2408  -22.4796    0.0000 C   0  0
   33.1847  -21.4015    0.0000 O   0  0
   26.4339  -26.4366    0.0000 C   0  0
   26.7521  -21.4088    0.0000 C   0  0
   29.9302  -23.8255    0.0000 C   0  0
   30.5079  -24.4035    0.0000 C   0  0
   30.5043  -23.2404    0.0000 O   0  0
 30 38  1  0
 23 24  1  0
 19 24  1  6
 22  3  1  0
 26 14  2  0
 21 15  1  6
  5 20  1  0
  8  2  1  0
 36 32  1  1
 36  1  1  0
 20 19  1  0
  4 35  1  6
 25 36  1  0
 38  7  2  0
 11 17  1  0
 21  5  1  0
 18 22  1  0
 13 33  1  0
 36 12  1  0
 24 37  1  1
 31 28  1  0
  2  6  2  0
 41 27  1  0
 35 43  1  0
 29 23  1  0
  9 16  1  0
  5  3  1  6
 19 25  1  0
 23  3  1  6
  1 10  1  0
 24 10  1  0
 40 30  2  0
 39 34  1  0
 25  8  1  6
  1 13  1  1
  7 26  1  0
 30 41  1  0
 22 11  1  0
  9  4  1  0
 20 12  1  6
 29 39  1  6
 15 31  1  1
 21 29  1  0
  2 26  1  0
 28 42  1  0
  5  4  1  0
 16 15  1  0
 15 18  1  0
 14 40  1  0
 37 44  1  0
 44 45  1  0
 44 46  2  0
M  END
>  <MOLREGNO>
1461934

>  <CHEMBLID>
CHEMBL2227792

>  <SYNONYMS>


>  <MAX_PHASE>
0

>  <MOLWEIGHT>
643.76

>  <ALOGP>
.8

>  <PSA>
122.22

>  <HBA>
11

>  <HBD>
1

>  <RO5>
2

>  <RTB>
12

>  <RO3>
N

>  <ACD_MOST_APKA>


>  <ACD_MOST_BPKA>
3.72

>  <ACD_LOGP>
3.1

>  <ACD_LOGD>
3.1

>  <AROMATIC_RINGS>
1

>  <HEAVY_ATOMS>
46

>  <QED_WEIGHTED>
.33

>  <HBA_LIPINSKI>
11

>  <HBD_LIPINSKI>
1

>  <NUM_LIPINSKI_RO5_VIOLATIONS>
1

>  <MW_MONOISOTOPIC>
643.3356

>  <MOLECULAR_SPECIES>
NEUTRAL

>  <FULL_MOLFORMULA>
C35H49NO10

$$$$

  SciTegic05071316162D

 30 35  0  0  0  0            999 V2000
   10.6813  -12.0161    0.0000 C   0  0
   10.6813  -12.8416    0.0000 C   0  0
   11.3985  -13.2473    0.0000 C   0  0  2  0  0  0
   11.3985  -11.5963    0.0000 C   0  0  1  0  0  0
   12.1130  -12.8381    0.0000 C   0  0  2  0  0  0
   12.1064  -12.0161    0.0000 C   0  0  2  0  0  0
   12.7599  -13.3456    0.0000 C   0  0
   13.5668  -13.1561    0.0000 C   0  0  2  0  0  0
   13.9216  -12.4075    0.0000 C   0  0  2  0  0  0
   12.7545  -11.4950    0.0000 C   0  0  1  0  0  0
   13.5580  -11.6668    0.0000 C   0  0  2  0  0  0
   13.9703  -10.9556    0.0000 C   0  0  2  0  0  0
   13.4185  -10.3388    0.0000 C   0  0  2  0  0  0
   12.6667  -10.6772    0.0000 C   0  0
   10.8030  -13.8294    0.0000 C   0  0
   11.7979  -13.9607    0.0000 C   0  0
   12.0986  -11.1906    0.0000 C   0  0
   14.7931  -10.8719    0.0000 O   0  0
   14.2434  -10.3365    0.0000 C   0  0  2  0  0  0
   14.7423  -12.4012    0.0000 C   0  0
   14.7546   -9.6883    0.0000 O   0  0
   15.5708   -9.8060    0.0000 C   0  0
   14.4988  -12.9896    0.0000 O   0  0
   11.4615  -12.3239    0.0000 N   0  0
   10.8769  -11.7393    0.0000 C   0  0
   10.0759  -11.9535    0.0000 C   0  0
   11.3985  -10.7707    0.0000 O   0  0
   12.1106  -10.3580    0.0000 C   0  0
   11.3859  -14.6723    0.0000 O   0  0
   11.7900  -15.3893    0.0000 C   0  0
  1  2  1  0
  1  4  1  0
  2  3  1  0
  3  5  1  0
  6  4  1  0
  5  6  1  0
  6 10  1  0
  5  7  1  6
  8  7  1  1
 11  9  1  6
  8  9  1  0
 10 11  1  0
 11 12  1  0
 12 13  1  0
 13 14  1  6
 10 14  1  6
  3 15  1  0
  3 16  1  1
  6 17  1  6
 12 18  1  6
 13 19  1  0
  9 20  1  0
 19 20  1  0
 19 21  1  1
 21 22  1  0
  9 23  1  1
  8 17  1  0
 15 24  1  0
 24 17  1  0
 24 25  1  0
 25 26  1  0
  4 27  1  6
 27 28  1  0
 16 29  1  0
 29 30  1  0
M  END
>  <MOLREGNO>
1461932

>  <CHEMBLID>
CHEMBL2227790

>  <SYNONYMS>


>  <MAX_PHASE>
0

>  <MOLWEIGHT>
421.57

>  <ALOGP>
-.32

>  <PSA>
71.39

>  <HBA>
6

>  <HBD>
2

>  <RO5>
0

>  <RTB>
5

>  <RO3>
N

>  <ACD_MOST_APKA>
7.13

>  <ACD_MOST_BPKA>


>  <ACD_LOGP>
2.84

>  <ACD_LOGD>
2.33

>  <AROMATIC_RINGS>
0

>  <HEAVY_ATOMS>
30

>  <QED_WEIGHTED>
.63

>  <HBA_LIPINSKI>
6

>  <HBD_LIPINSKI>
2

>  <NUM_LIPINSKI_RO5_VIOLATIONS>
0

>  <MW_MONOISOTOPIC>
421.2828

>  <MOLECULAR_SPECIES>
NEUTRAL

>  <FULL_MOLFORMULA>
C24H39NO5

$$$$

  CDK    9/16/09,9:20

 39 45  0  0  0  0  0  0  0  0999 V2000
    6.2596  -20.0730    0.0000 C   0  0  0  0  0  0  0  0  0  0  0  0
    5.8494  -20.8242    0.0000 C   0  0  0  0  0  0  0  0  0  0  0  0
    5.0731  -20.9608    0.0000 C   0  0  0  0  0  0  0  0  0  0  0  0
    4.4639  -20.4312    0.0000 C   0  0  0  0  0  0  0  0  0  0  0  0
    4.4599  -19.6218    0.0000 C   0  0  0  0  0  0  0  0  0  0  0  0
    3.7608  -19.2228    0.0000 C   0  0  0  0  0  0  0  0  0  0  0  0
    3.0612  -19.6287    0.0000 C   0  0  0  0  0  0  0  0  0  0  0  0
    3.0652  -20.4381    0.0000 C   0  0  0  0  0  0  0  0  0  0  0  0
    3.7688  -20.8416    0.0000 C   0  0  0  0  0  0  0  0  0  0  0  0
    5.1325  -19.1083    0.0000 C   0  0  0  0  0  0  0  0  0  0  0  0
    5.9385  -19.3147    0.0000 C   0  0  0  0  0  0  0  0  0  0  0  0
    6.3839  -18.6119    0.0000 C   0  0  0  0  0  0  0  0  0  0  0  0
    5.8531  -17.9711    0.0000 C   0  0  0  0  0  0  0  0  0  0  0  0
    5.0798  -18.2780    0.0000 C   0  0  0  0  0  0  0  0  0  0  0  0
    4.1750  -21.5500    0.0000 C   0  0  0  0  0  0  0  0  0  0  0  0
    3.0500  -21.2458    0.0000 C   0  0  0  0  0  0  0  0  0  0  0  0
    3.7333  -20.0708    0.0000 N   0  0  0  0  0  0  0  0  0  0  0  0
    4.4542  -18.7958    0.0000 C   0  0  0  0  0  0  0  0  0  0  0  0
    6.2625  -21.5167    0.0000 O   0  0  0  0  0  0  0  0  0  0  0  0
    7.6333  -17.9792    0.0000 C   0  0  0  0  0  0  0  0  0  0  0  0
    7.6333  -20.0708    0.0000 C   0  0  0  0  0  0  0  0  0  0  0  0
    7.2083  -18.6083    0.0000 O   0  0  0  0  0  0  0  0  0  0  0  0
    7.9208  -19.0208    0.0000 C   0  0  0  0  0  0  0  0  0  0  0  0
    8.3359  -17.5467    0.0000 O   0  0  0  0  0  0  0  0  0  0  0  0
    8.3127  -16.7221    0.0000 C   0  0  0  0  0  0  0  0  0  0  0  0
    3.7579  -18.3978    0.0000 O   0  0  0  0  0  0  0  0  0  0  0  0
    3.0420  -17.9878    0.0000 C   0  0  0  0  0  0  0  0  0  0  0  0
    2.9083  -20.0667    0.0000 C   0  0  0  0  0  0  0  0  0  0  0  0
    2.4994  -19.3501    0.0000 C   0  0  0  0  0  0  0  0  0  0  0  0
    5.0667  -21.7833    0.0000 O   0  0  0  0  0  0  0  0  0  0  0  0
    6.9708  -20.4833    0.0000 O   0  0  0  0  0  0  0  0  0  0  0  0
    5.8458  -17.1458    0.0000 H   0  0  0  0  0  0  0  0  0  0  0  0
    7.3208  -21.2375    0.0000 C   0  0  0  0  0  0  0  0  0  0  0  0
    4.6500  -22.4958    0.0000 C   0  0  0  0  0  0  0  0  0  0  0  0
    3.8250  -22.4912    0.0000 C   0  0  0  0  0  0  0  0  0  0  0  0
    5.0585  -23.2126    0.0000 O   0  0  0  0  0  0  0  0  0  0  0  0
    5.7125  -18.5167    0.0000 O   0  0  0  0  0  0  0  0  0  0  0  0
    4.4583  -21.2542    0.0000 H   0  0  0  0  0  0  0  0  0  0  0  0
    6.7625  -19.3125    0.0000 H   0  0  0  0  0  0  0  0  0  0  0  0
 18 17  1  0  0  0  0 
 18  2  1  0  0  0  0 
  6  7  1  0  0  0  0 
  2 19  1  6  0  0  0 
  7  8  1  0  0  0  0 
 13 20  1  0  0  0  0 
  8  9  1  0  0  0  0 
  1 21  1  0  0  0  0 
 20 21  1  0  0  0  0 
 10 11  1  0  0  0  0 
 12 22  1  6  0  0  0 
  4  5  1  0  0  0  0 
 22 23  1  0  0  0  0 
 20 24  1  1  0  0  0 
 10  5  1  0  0  0  0 
 24 25  1  0  0  0  0 
  1  2  1  0  0  0  0 
  6 26  1  6  0  0  0 
  2  3  1  0  0  0  0 
 26 27  1  0  0  0  0 
 11 12  1  0  0  0  0 
 17 28  1  0  0  0  0 
 12 13  1  0  0  0  0 
 28 29  1  0  0  0  0 
 13 14  1  0  0  0  0 
  3 30  1  1  0  0  0 
 14 10  1  0  0  0  0 
  1 31  1  1  0  0  0 
  3  4  1  0  0  0  0 
 13 32  1  1  0  0  0 
  9 15  1  1  0  0  0 
 19 33  1  0  0  0  0 
 33 31  1  0  0  0  0 
 11  1  1  0  0  0  0 
 30 34  1  0  0  0  0 
  9 16  1  0  0  0  0 
 34 35  1  0  0  0  0 
  4  9  1  0  0  0  0 
 34 36  2  0  0  0  0 
 16 17  1  0  0  0  0 
 10 37  1  1  0  0  0 
  5  6  1  0  0  0  0 
  4 38  1  1  0  0  0 
  5 18  1  6  0  0  0 
 11 39  1  1  0  0  0 
M  END
>  <MOLREGNO>
445573

>  <CHEMBLID>
CHEMBL480500

>  <SYNONYMS>
Deltaline

>  <MAX_PHASE>
0

>  <MOLWEIGHT>
507.62

>  <ALOGP>
-.73

>  <PSA>
95.92

>  <HBA>
9

>  <HBD>
1

>  <RO5>
1

>  <RTB>
6

>  <RO3>
N

>  <ACD_MOST_APKA>
13.1

>  <ACD_MOST_BPKA>
7.21

>  <ACD_LOGP>
-.13

>  <ACD_LOGD>
-.41

>  <AROMATIC_RINGS>
0

>  <HEAVY_ATOMS>
36

>  <QED_WEIGHTED>
.47

>  <HBA_LIPINSKI>
9

>  <HBD_LIPINSKI>
1

>  <NUM_LIPINSKI_RO5_VIOLATIONS>
0

>  <MW_MONOISOTOPIC>
507.2832

>  <MOLECULAR_SPECIES>
NEUTRAL

>  <FULL_MOLFORMULA>
C27H41NO8

$$$$

  SciTegic12231509382D

 33 38  0  0  0  0            999 V2000
    9.3346  -17.6027    0.0000 C   0  0
    9.9510  -18.1511    0.0000 C   0  0
   10.7810  -18.1495    0.0000 N   0  0
   10.3706  -17.6975    0.0000 C   0  0
   10.3299  -18.5215    0.0000 C   0  0
   11.0210  -18.9644    0.0000 C   0  0  2  0  0  0
   11.1023  -17.3164    0.0000 C   0  0  1  0  0  0
   11.7562  -18.5898    0.0000 C   0  0  2  0  0  0
   11.7930  -17.7677    0.0000 C   0  0  2  0  0  0
   12.3817  -19.1333    0.0000 C   0  0  1  0  0  0
   13.1961  -18.9824    0.0000 C   0  0  1  0  0  0
   13.5835  -18.2510    0.0000 C   0  0  2  0  0  0
   12.4645  -17.2802    0.0000 C   0  0  1  0  0  0
   13.2588  -17.4918    0.0000 C   0  0  2  0  0  0
   13.7057  -16.8018    0.0000 C   0  0  2  0  0  0
   13.1875  -16.1635    0.0000 C   0  0  2  0  0  0
   12.4204  -16.4593    0.0000 C   0  0
   11.8280  -16.9428    0.0000 C   0  0
   13.6623  -19.6630    0.0000 O   0  0
   14.8148  -16.3932    0.0000 C   0  0  2  0  0  0
   14.7158  -18.2948    0.0000 C   0  0
   10.7600  -19.7452    0.0000 C   0  0
   14.2734  -18.6973    0.0000 O   0  0
   11.4291  -19.6750    0.0000 C   0  0
   11.0150  -20.3885    0.0000 O   0  0
   11.4260  -21.1039    0.0000 C   0  0
   11.1429  -16.4924    0.0000 O   0  0
   12.3750  -19.9582    0.0000 O   0  0
   13.0860  -20.3766    0.0000 C   0  0
   14.5291  -16.8000    0.0000 O   0  0
   14.1352  -17.5281    0.0000 C   0  0
   15.4515  -15.8685    0.0000 O   0  0
   16.2242  -16.1576    0.0000 C   0  0
  1  2  1  0
  2  3  1  0
  4  5  1  0
  4  7  1  0
  5  6  1  0
  8  6  1  6
  9  7  1  0
  8  9  1  0
  9 13  1  0
  8 10  1  0
 10 11  1  0
 14 12  1  6
 11 12  1  0
 13 14  1  0
 14 15  1  0
 15 16  1  0
 16 17  1  6
 13 17  1  6
  9 18  1  6
 18 11  1  0
 11 19  1  1
 16 20  1  0
 12 21  1  0
 20 21  1  0
  6 22  1  6
 22  3  1  0
 18  3  1  0
 12 23  1  1
  6 24  1  0
 24 25  1  0
 25 26  1  0
  7 27  1  6
 10 28  1  1
 28 29  1  0
 15 30  1  6
 30 31  1  0
 20 32  1  1
 32 33  1  0
M  END
>  <MOLREGNO>
1500415

>  <CHEMBLID>
CHEMBL2296832

>  <SYNONYMS>
Delsoline

>  <MAX_PHASE>
0

>  <MOLWEIGHT>
467.6

>  <ALOGP>
-1.56

>  <PSA>
100.85

>  <HBA>
8

>  <HBD>
3

>  <RO5>
0

>  <RTB>
6

>  <RO3>
N

>  <ACD_MOST_APKA>
3.31

>  <ACD_MOST_BPKA>
10.6

>  <ACD_LOGP>
-1.46

>  <ACD_LOGD>
-4.96

>  <AROMATIC_RINGS>
0

>  <HEAVY_ATOMS>
33

>  <QED_WEIGHTED>
.43

>  <HBA_LIPINSKI>
8

>  <HBD_LIPINSKI>
3

>  <NUM_LIPINSKI_RO5_VIOLATIONS>
0

>  <MW_MONOISOTOPIC>
467.2883

>  <MOLECULAR_SPECIES>
ZWITTERION

>  <FULL_MOLFORMULA>
C25H41NO7

$$$$

  SciTegic09081514182D

 37 42  0  0  0  0            999 V2000
   -2.3052    0.7287    0.0000 C   0  0
   -2.2982   -0.5465    0.0000 C   0  0  2  0  0  0
   -1.1841   -1.1841    0.0000 C   0  0  2  0  0  0
   -1.1981    1.3733    0.0000 C   0  0  2  0  0  0
   -0.2011   -1.5248    0.0000 H   0  0
   -1.2026    2.5733    0.0000 O   0  0
   -0.0841    1.8497    0.0000 C   0  0
   -2.1650   -1.4293    0.0000 C   0  0
   -1.1701    0.1892    0.0000 N   0  0
   -1.2259    0.3227    0.0000 C   0  0
   -2.2121    1.4539    0.0000 O   0  0
   -1.8238    2.5894    0.0000 C   0  0
   -2.4780    0.9537    0.0000 C   0  0
   -3.3346   -1.1513    0.0000 O   0  0
   -3.5205    0.3594    0.0000 C   0  0
   -0.0771   -0.5325    0.0000 C   0  0  2  0  0  0
   -0.0841    0.7357    0.0000 C   0  0  2  0  0  0
    0.6796   -1.2822    0.0000 C   0  0  2  0  0  0
    1.9058   -1.0650    0.0000 C   0  0  1  0  0  0
    2.4944    0.0841    0.0000 C   0  0  2  0  0  0
    0.6937    1.5064    0.0000 C   0  0  1  0  0  0
    1.9198    1.2752    0.0000 C   0  0  2  0  0  0
    2.5224    2.3752    0.0000 C   0  0  2  0  0  0
    1.6536    3.2791    0.0000 C   0  0  2  0  0  0
    0.5255    2.7396    0.0000 C   0  0
    4.1059    3.2791    0.0000 C   0  0  2  0  0  0
    4.4632    2.0459    0.0000 C   0  0
    5.1381    4.3572    0.0000 O   0  0
    4.8080    5.5109    0.0000 C   0  0
    3.7119    2.5335    0.0000 O   0  0
    1.8748    2.3039    0.0000 H   0  0
    0.1610   -2.6951    0.0000 O   0  0
   -1.0213   -2.9001    0.0000 C   0  0
    1.3115   -0.2608    0.0000 H   0  0
   -0.2533    1.8278    0.0000 H   0  0
    2.9195    1.2494    0.0000 H   0  0
    3.4638   -0.6232    0.0000 O   0  0
  1  2  1  0
  1  4  1  0
  2  3  1  0
  3 16  1  0
 17  4  1  0
 16  5  1  1
  4  6  1  6
 17  7  1  6
  3  8  1  0
  7  9  1  0
  9  8  1  0
  3 10  1  1
 10 11  1  0
 11 12  1  0
  9 13  1  0
  2 14  1  6
 13 15  1  0
 16 17  1  0
 17 21  1  0
 16 18  1  0
 18 19  1  0
 22 20  1  0
 19 20  1  0
 21 22  1  0
 22 23  1  0
 23 24  1  0
 24 25  1  0
 25 21  1  0
 26 24  1  0
 20 27  1  0
 26 27  1  0
 26 28  1  1
 28 29  1  0
 23 30  1  6
 24 31  1  1
 18 32  1  6
 32 33  1  0
 19  7  1  0
 19 34  1  1
 21 35  1  1
 22 36  1  1
 20 37  1  1
M  END
>  <MOLREGNO>
1830501

>  <CHEMBLID>
CHEMBL3400311

>  <SYNONYMS>


>  <MAX_PHASE>
0

>  <MOLWEIGHT>
453.57

>  <ALOGP>
-2.49

>  <PSA>
111.85

>  <HBA>
8

>  <HBD>
4

>  <RO5>
0

>  <RTB>
5

>  <RO3>
N

>  <ACD_MOST_APKA>
11.35

>  <ACD_MOST_BPKA>
4.94

>  <ACD_LOGP>
2.72

>  <ACD_LOGD>
2.72

>  <AROMATIC_RINGS>
0

>  <HEAVY_ATOMS>
32

>  <QED_WEIGHTED>
.36

>  <HBA_LIPINSKI>
8

>  <HBD_LIPINSKI>
4

>  <NUM_LIPINSKI_RO5_VIOLATIONS>
0

>  <MW_MONOISOTOPIC>
453.2727

>  <MOLECULAR_SPECIES>
NEUTRAL

>  <FULL_MOLFORMULA>
C24H39NO7

$$$$

  SciTegic05061409282D

 60 67  0  0  0  0            999 V2000
   10.0473  -10.5414    0.0000 C   0  0  1  0  0  0
   10.7626  -10.1374    0.0000 C   0  0  1  0  0  0
    9.8838  -11.3520    0.0000 C   0  0
   10.5839  -11.7689    0.0000 O   0  0
   11.4741  -10.5514    0.0000 O   0  0
   11.4858   -8.9086    0.0000 O   0  0
    9.3438   -9.3024    0.0000 C   0  0  2  0  0  0
   10.0576   -8.8929    0.0000 C   0  0  2  0  0  0
   10.0671   -8.0735    0.0000 O   0  0
    8.6302   -8.8921    0.0000 O   0  0
   10.7705   -9.3125    0.0000 C   0  0  2  0  0  0
    9.3337  -10.1311    0.0000 O   0  0
    7.6003   -8.8036    0.0000 C   0  0
   13.3165   -3.3274    0.0000 C   0  0
    3.6222   -6.8459    0.0000 C   0  0  2  0  0  0
   10.8529   -6.6812    0.0000 C   0  0
   11.8981   -3.4720    0.0000 C   0  0  1  0  0  0
    3.6193   -7.6700    0.0000 C   0  0  1  0  0  0
    5.0414   -7.6718    0.0000 C   0  0  1  0  0  0
   11.8956   -4.2952    0.0000 O   0  0
    6.4672   -7.6733    0.0000 C   0  0  1  0  0  0
    7.1878   -6.4284    0.0000 C   0  0
   11.1160   -3.2152    0.0000 C   0  0
    8.6148   -6.4178    0.0000 C   0  0  1  0  0  0
   12.1680   -6.0109    0.0000 O   0  0
    5.7539   -8.0842    0.0000 O   0  0
    7.9038   -7.6733    0.0000 C   0  0  1  0  0  0
   13.2750   -2.5724    0.0000 O   0  0
    6.7772   -8.8048    0.0000 C   0  0
    7.9038   -6.8418    0.0000 C   0  0  2  0  0  0
    8.6128   -5.5837    0.0000 C   0  0
   11.8242   -4.9586    0.0000 C   0  0
   12.5656   -2.9903    0.0000 C   0  0
    6.4672   -6.8418    0.0000 C   0  0
    4.3323   -8.0867    0.0000 C   0  0  2  0  0  0
   10.0574   -4.7632    0.0000 C   0  0
    9.3403   -5.1678    0.0000 C   0  0
    5.0463   -6.8508    0.0000 O   0  0
   11.6787   -5.3286    0.0000 H   0  0
    2.9114   -6.4309    0.0000 O   0  0
   10.0611   -6.4211    0.0000 C   0  0  2  0  0  0
    4.3324   -8.9098    0.0000 O   0  0
    9.3381   -7.6649    0.0000 C   0  0
    4.3379   -6.4387    0.0000 C   0  0
   12.4821   -2.1714    0.0000 C   0  0
    8.6231   -8.0765    0.0000 C   0  0  2  0  0  0
    7.8457   -5.9730    0.0000 C   0  0
   10.8570   -5.3327    0.0000 C   0  0  2  0  0  0
   10.0638   -5.5877    0.0000 C   0  0  2  0  0  0
    9.3381   -6.8377    0.0000 C   0  0  2  0  0  0
    2.9047   -8.0784    0.0000 O   0  0
   10.6303   -3.8798    0.0000 C   0  0
   11.3450   -6.0084    0.0000 C   0  0  2  0  0  0
   11.1139   -4.5507    0.0000 C   0  0  1  0  0  0
    7.1878   -8.0914    0.0000 C   0  0
   10.0532   -7.2409    0.0000 C   0  0
    5.0348   -8.4867    0.0000 H   0  0
    7.1913   -7.2639    0.0000 H   0  0
    9.3313   -6.0162    0.0000 H   0  0
    9.3272   -8.4826    0.0000 H   0  0
  2  5  1  6
  4  3  1  0
 12  7  1  0
 11  2  1  0
  7 10  1  1
 11  6  1  1
  8  7  1  0
  2  1  1  0
  1  3  1  1
  8  9  1  6
  1 12  1  0
 11  8  1  0
 41 16  1  0
 19 35  1  0
 33 45  1  0
 48 54  1  0
 50 41  1  0
 17 33  1  1
 29 55  1  0
 30 22  1  0
 22 34  1  0
 17 23  1  0
 55 27  1  0
 27 46  1  0
 48 49  1  0
 21 55  1  0
 54 20  1  0
 19 38  1  0
 18 35  1  0
 49 37  1  0
 27 30  1  0
 24 31  1  0
 38 44  1  0
 54 32  1  6
 30 24  1  0
 15 40  1  6
 35 42  1  6
 20 17  1  0
 30 47  1  1
 52 54  1  0
 21 26  1  1
 44 15  1  0
 49 41  1  0
 23 52  1  0
 18 51  1  1
 26 19  1  0
 24 50  1  0
 46 43  1  0
 53 48  1  0
 53 25  1  1
 41 56  1  6
 15 18  1  0
 50 43  1  0
 49 36  1  1
 34 21  1  0
 33 14  1  0
 48 39  1  6
 16 53  1  0
 55 13  1  0
 33 28  1  0
 37 31  1  0
 19 57  1  6
 27 58  1  6
 50 59  1  1
 46 10  1  0
 46 60  1  1
 24 47  1  1
M  END
>  <MOLREGNO>
1620884

>  <CHEMBLID>
CHEMBL3121562

>  <SYNONYMS>


>  <MAX_PHASE>
0

>  <MOLWEIGHT>
784.97

>  <ALOGP>
-.35

>  <PSA>
228.21

>  <HBA>
14

>  <HBD>
9

>  <RO5>
3

>  <RTB>
7

>  <RO3>
N

>  <ACD_MOST_APKA>
9.61

>  <ACD_MOST_BPKA>
3.12

>  <ACD_LOGP>
5.91

>  <ACD_LOGD>
5.91

>  <AROMATIC_RINGS>
0

>  <HEAVY_ATOMS>
55

>  <QED_WEIGHTED>
.15

>  <HBA_LIPINSKI>
14

>  <HBD_LIPINSKI>
9

>  <NUM_LIPINSKI_RO5_VIOLATIONS>
2

>  <MW_MONOISOTOPIC>
784.4609

>  <MOLECULAR_SPECIES>
NEUTRAL

>  <FULL_MOLFORMULA>
C41H68O14

$$$$

  CDK    9/16/09,9:21

 67 74  0  0  0  0  0  0  0  0999 V2000
    7.0794   -8.6905    0.0000 C   0  0  0  0  0  0  0  0  0  0  0  0
    7.8752   -8.4738    0.0000 O   0  0  0  0  0  0  0  0  0  0  0  0
    7.9151   -7.6500    0.0000 C   0  0  0  0  0  0  0  0  0  0  0  0
    7.1439   -7.3574    0.0000 C   0  0  0  0  0  0  0  0  0  0  0  0
    6.6275   -8.0006    0.0000 C   0  0  0  0  0  0  0  0  0  0  0  0
    2.4583  -10.9375    0.0000 C   0  0  0  0  0  0  0  0  0  0  0  0
    2.4583  -11.7625    0.0000 C   0  0  0  0  0  0  0  0  0  0  0  0
    3.1704  -12.1708    0.0000 C   0  0  0  0  0  0  0  0  0  0  0  0
    3.1704  -10.5208    0.0000 C   0  0  0  0  0  0  0  0  0  0  0  0
    3.8824  -10.9375    0.0000 C   0  0  0  0  0  0  0  0  0  0  0  0
    3.8789  -11.7625    0.0000 C   0  0  0  0  0  0  0  0  0  0  0  0
    4.5876  -12.1757    0.0000 C   0  0  0  0  0  0  0  0  0  0  0  0
    5.3044  -11.7685    0.0000 C   0  0  0  0  0  0  0  0  0  0  0  0
    4.5946  -10.5257    0.0000 C   0  0  0  0  0  0  0  0  0  0  0  0
    5.3041  -10.9461    0.0000 C   0  0  0  0  0  0  0  0  0  0  0  0
    5.3210   -9.2999    0.0000 C   0  0  0  0  0  0  0  0  0  0  0  0
    4.6000   -9.7034    0.0000 C   0  0  0  0  0  0  0  0  0  0  0  0
    6.0304   -9.7202    0.0000 C   0  0  0  0  0  0  0  0  0  0  0  0
    6.0214  -10.5417    0.0000 C   0  0  0  0  0  0  0  0  0  0  0  0
    6.8000  -10.8041    0.0000 C   0  0  0  0  0  0  0  0  0  0  0  0
    7.2902  -10.1447    0.0000 C   0  0  0  0  0  0  0  0  0  0  0  0
    6.8145   -9.4749    0.0000 C   0  0  0  0  0  0  0  0  0  0  0  0
    8.1152  -10.1536    0.0000 O   0  0  0  0  0  0  0  0  0  0  0  0
    7.7917   -9.1000    0.0000 C   0  0  0  0  0  0  0  0  0  0  0  0
    7.6375   -9.4708    0.0000 H   0  0  0  0  0  0  0  0  0  0  0  0
    8.6052   -7.1979    0.0000 C   0  0  0  0  0  0  0  0  0  0  0  0
    9.3167   -6.7792    0.0000 C   0  0  0  0  0  0  0  0  0  0  0  0
    8.1698   -6.4972    0.0000 O   0  0  0  0  0  0  0  0  0  0  0  0
    9.0402   -7.8989    0.0000 C   0  0  0  0  0  0  0  0  0  0  0  0
    8.5590   -5.7697    0.0000 C   0  0  0  0  0  0  0  0  0  0  0  0
    6.0250   -8.8917    0.0000 C   0  0  0  0  0  0  0  0  0  0  0  0
    5.2958  -10.1208    0.0000 H   0  0  0  0  0  0  0  0  0  0  0  0
    3.8708  -12.5833    0.0000 H   0  0  0  0  0  0  0  0  0  0  0  0
    6.0167  -11.3667    0.0000 C   0  0  0  0  0  0  0  0  0  0  0  0
    3.8750  -10.1125    0.0000 C   0  0  0  0  0  0  0  0  0  0  0  0
    1.7445  -12.1760    0.0000 O   0  0  0  0  0  0  0  0  0  0  0  0
    2.7500  -12.8833    0.0000 C   0  0  0  0  0  0  0  0  0  0  0  0
    3.3792  -12.9667    0.0000 C   0  0  0  0  0  0  0  0  0  0  0  0
    4.5830  -13.0007    0.0000 O   0  0  0  0  0  0  0  0  0  0  0  0
    1.0294  -11.7646    0.0000 C   0  0  0  0  0  0  0  0  0  0  0  0
    1.0304  -10.9409    0.0000 O   0  0  0  0  0  0  0  0  0  0  0  0
    0.3195  -10.5295    0.0000 C   0  0  0  0  0  0  0  0  0  0  0  0
   -0.3968  -10.9395    0.0000 C   0  0  0  0  0  0  0  0  0  0  0  0
   -0.3976  -11.7655    0.0000 C   0  0  0  0  0  0  0  0  0  0  0  0
    0.3179  -12.1814    0.0000 C   0  0  0  0  0  0  0  0  0  0  0  0
    1.7417  -11.3458    0.0000 H   0  0  0  0  0  0  0  0  0  0  0  0
    0.3193  -13.0064    0.0000 O   0  0  0  0  0  0  0  0  0  0  0  0
   -1.1104  -10.5254    0.0000 O   0  0  0  0  0  0  0  0  0  0  0  0
   -1.1129  -12.1766    0.0000 O   0  0  0  0  0  0  0  0  0  0  0  0
    5.2951  -13.4172    0.0000 C   0  0  0  0  0  0  0  0  0  0  0  0
    5.2847  -14.2425    0.0000 O   0  0  0  0  0  0  0  0  0  0  0  0
    5.9927  -14.6589    0.0000 C   0  0  0  0  0  0  0  0  0  0  0  0
    6.7119  -14.2540    0.0000 C   0  0  0  0  0  0  0  0  0  0  0  0
    6.7186  -13.4280    0.0000 C   0  0  0  0  0  0  0  0  0  0  0  0
    6.0060  -13.0070    0.0000 C   0  0  0  0  0  0  0  0  0  0  0  0
    6.0103  -12.1821    0.0000 O   0  0  0  0  0  0  0  0  0  0  0  0
    7.4225  -14.6732    0.0000 O   0  0  0  0  0  0  0  0  0  0  0  0
    7.4367  -13.0220    0.0000 O   0  0  0  0  0  0  0  0  0  0  0  0
    5.9850  -15.4839    0.0000 C   0  0  0  0  0  0  0  0  0  0  0  0
    5.2667  -15.8896    0.0000 O   0  0  0  0  0  0  0  0  0  0  0  0
    5.2875  -12.5917    0.0000 H   0  0  0  0  0  0  0  0  0  0  0  0
    1.0345  -13.4177    0.0000 C   0  0  0  0  0  0  0  0  0  0  0  0
    1.0359  -14.2427    0.0000 C   0  0  0  0  0  0  0  0  0  0  0  0
    1.7482  -13.0040    0.0000 O   0  0  0  0  0  0  0  0  0  0  0  0
   -1.8266  -11.7627    0.0000 C   0  0  0  0  0  0  0  0  0  0  0  0
   -2.5418  -12.1738    0.0000 C   0  0  0  0  0  0  0  0  0  0  0  0
   -1.8250  -10.9377    0.0000 O   0  0  0  0  0  0  0  0  0  0  0  0
  2  3  1  0  0  0  0 
 15 32  1  1  0  0  0 
  3  4  1  0  0  0  0 
 11 33  1  6  0  0  0 
  6  9  1  0  0  0  0 
 19 34  1  6  0  0  0 
 10 35  1  1  0  0  0 
 14 17  1  0  0  0  0 
 14 35  1  1  0  0  0 
 15 19  1  0  0  0  0 
  7 36  1  1  0  0  0 
 18 16  1  0  0  0  0 
  8 37  1  0  0  0  0 
 16 17  1  0  0  0  0 
  8 38  1  0  0  0  0 
 18 19  1  0  0  0  0 
 12 39  1  6  0  0  0 
  7  8  1  0  0  0  0 
 36 40  1  0  0  0  0 
 40 41  1  0  0  0  0 
  8 11  1  0  0  0  0 
 10  9  1  0  0  0  0 
 10 11  1  0  0  0  0 
  4  5  1  0  0  0  0 
 19 20  1  0  0  0  0 
 40 45  1  0  0  0  0 
 41 42  1  0  0  0  0 
 42 43  1  0  0  0  0 
 43 44  1  0  0  0  0 
 44 45  1  0  0  0  0 
 20 21  1  0  0  0  0 
 40 46  1  6  0  0  0 
 21 22  1  0  0  0  0 
 45 47  1  6  0  0  0 
 22 18  1  0  0  0  0 
 43 48  1  6  0  0  0 
  5  1  1  0  0  0  0 
 44 49  1  1  0  0  0 
 21 23  1  1  0  0  0 
 39 50  1  0  0  0  0 
 50 51  1  0  0  0  0 
 22  1  1  0  0  0  0 
  6  7  1  0  0  0  0 
  1 24  1  6  0  0  0 
  1  2  1  0  0  0  0 
 22 25  1  6  0  0  0 
 50 55  1  0  0  0  0 
 51 52  1  0  0  0  0 
 52 53  1  0  0  0  0 
 53 54  1  0  0  0  0 
 54 55  1  0  0  0  0 
 10 14  1  0  0  0  0 
 55 56  1  6  0  0  0 
  3 26  1  1  0  0  0 
 53 57  1  6  0  0  0 
 11 12  1  0  0  0  0 
 54 58  1  1  0  0  0 
 26 27  1  0  0  0  0 
 52 59  1  1  0  0  0 
 12 13  1  0  0  0  0 
 59 60  1  0  0  0  0 
 26 28  1  0  0  0  0 
 50 61  1  6  0  0  0 
 13 15  1  0  0  0  0 
 47 62  1  0  0  0  0 
 26 29  1  0  0  0  0 
 62 63  1  0  0  0  0 
 14 15  1  0  0  0  0 
 62 64  2  0  0  0  0 
 28 30  1  0  0  0  0 
 49 65  1  0  0  0  0 
 65 66  1  0  0  0  0 
 18 31  1  1  0  0  0 
 65 67  2  0  0  0  0 
M  END
>  <MOLREGNO>
465668

>  <CHEMBLID>
CHEMBL498853

>  <SYNONYMS>
Astragaloside I

>  <MAX_PHASE>
0

>  <MOLWEIGHT>
883.07

>  <ALOGP>
.82

>  <PSA>
229.36

>  <HBA>
16

>  <HBD>
6

>  <RO5>
3

>  <RTB>
12

>  <RO3>
N

>  <ACD_MOST_APKA>
12.87

>  <ACD_MOST_BPKA>


>  <ACD_LOGP>
2.97

>  <ACD_LOGD>
2.97

>  <AROMATIC_RINGS>
0

>  <HEAVY_ATOMS>
62

>  <QED_WEIGHTED>
.12

>  <HBA_LIPINSKI>
16

>  <HBD_LIPINSKI>
6

>  <NUM_LIPINSKI_RO5_VIOLATIONS>
2

>  <MW_MONOISOTOPIC>
882.4977

>  <MOLECULAR_SPECIES>
NEUTRAL

>  <FULL_MOLFORMULA>
C46H74O16

$$$$

  SciTegic01161211222D

 20 22  0  0  0  0            999 V2000
   11.7195   -5.3470    0.0000 C   0  0
   11.7195   -6.1756    0.0000 C   0  0
   12.4331   -6.5876    0.0000 C   0  0
   12.4331   -4.9304    0.0000 C   0  0
   13.1513   -5.3470    0.0000 C   0  0
   13.1478   -6.1756    0.0000 C   0  0
   13.8597   -6.5907    0.0000 O   0  0
   14.5795   -6.1817    0.0000 C   0  0
   14.5832   -5.3531    0.0000 C   0  0
   13.8667   -4.9335    0.0000 C   0  0
   15.2962   -4.9480    0.0000 C   0  0
   16.0075   -5.3659    0.0000 C   0  0
   16.7211   -4.9612    0.0000 C   0  0
   16.7298   -4.1368    0.0000 C   0  0
   16.0185   -3.7189    0.0000 C   0  0
   15.2986   -4.1253    0.0000 C   0  0
   11.0058   -6.5876    0.0000 O   0  0
   13.8690   -4.1095    0.0000 O   0  0
   17.4470   -3.7313    0.0000 O   0  0
   18.1569   -4.1498    0.0000 C   0  0
  8  9  2  0
  9 10  1  0
 11 12  1  0
  5  6  2  0
  1  2  1  0
  1  4  2  0
  2  3  2  0
  3  6  1  0
 11 16  2  0
 12 13  2  0
 13 14  1  0
 14 15  2  0
 15 16  1  0
  9 11  1  0
  5  4  1  0
  2 17  1  0
  5 10  1  0
 10 18  2  0
  6  7  1  0
 14 19  1  0
  7  8  1  0
 19 20  1  0
M  END
>  <MOLREGNO>
391222

>  <CHEMBLID>
CHEMBL242341

>  <SYNONYMS>
NSC-93360

>  <MAX_PHASE>
0

>  <MOLWEIGHT>
268.26

>  <ALOGP>
2.61

>  <PSA>
55.76

>  <HBA>
4

>  <HBD>
1

>  <RO5>
0

>  <RTB>
2

>  <RO3>
N

>  <ACD_MOST_APKA>
6.99

>  <ACD_MOST_BPKA>


>  <ACD_LOGP>
2.86

>  <ACD_LOGD>
2.31

>  <AROMATIC_RINGS>
2

>  <HEAVY_ATOMS>
20

>  <QED_WEIGHTED>
.91

>  <HBA_LIPINSKI>
4

>  <HBD_LIPINSKI>
1

>  <NUM_LIPINSKI_RO5_VIOLATIONS>
0

>  <MW_MONOISOTOPIC>
268.0736

>  <MOLECULAR_SPECIES>
NEUTRAL

>  <FULL_MOLFORMULA>
C16H12O4

$$$$

  CDK    9/16/09,9:20

 31 34  0  0  0  0  0  0  0  0999 V2000
   11.1362    1.0673    0.0000 C   0  0  0  0  0  0  0  0  0  0  0  0
   11.1392    0.2442    0.0000 C   0  0  0  0  0  0  0  0  0  0  0  0
   11.8540   -0.1686    0.0000 C   0  0  0  0  0  0  0  0  0  0  0  0
   11.8563    1.4800    0.0000 C   0  0  0  0  0  0  0  0  0  0  0  0
   12.5675    1.0668    0.0000 C   0  0  0  0  0  0  0  0  0  0  0  0
   12.5663    0.2422    0.0000 C   0  0  0  0  0  0  0  0  0  0  0  0
   13.2789   -0.1689    0.0000 C   0  0  0  0  0  0  0  0  0  0  0  0
   13.9973    0.2443    0.0000 C   0  0  0  0  0  0  0  0  0  0  0  0
   13.9943    1.0689    0.0000 C   0  0  0  0  0  0  0  0  0  0  0  0
   13.2813    1.4804    0.0000 O   0  0  0  0  0  0  0  0  0  0  0  0
   13.2807   -0.9938    0.0000 O   0  0  0  0  0  0  0  0  0  0  0  0
   14.7105   -0.1702    0.0000 C   0  0  0  0  0  0  0  0  0  0  0  0
   14.7071   -0.9961    0.0000 C   0  0  0  0  0  0  0  0  0  0  0  0
   15.4195   -1.4104    0.0000 C   0  0  0  0  0  0  0  0  0  0  0  0
   16.1401   -0.9958    0.0000 C   0  0  0  0  0  0  0  0  0  0  0  0
   16.1398   -0.1708    0.0000 C   0  0  0  0  0  0  0  0  0  0  0  0
   15.4269    0.2441    0.0000 C   0  0  0  0  0  0  0  0  0  0  0  0
   16.8665   -1.4134    0.0000 O   0  0  0  0  0  0  0  0  0  0  0  0
   16.8694   -2.2466    0.0000 C   0  0  0  0  0  0  0  0  0  0  0  0
   10.4175    1.4796    0.0000 O   0  0  0  0  0  0  0  0  0  0  0  0
    9.7051    1.0642    0.0000 C   0  0  0  0  0  0  0  0  0  0  0  0
    9.7091    0.2393    0.0000 C   0  0  0  0  0  0  0  0  0  0  0  0
   10.4296   -0.1828    0.0000 O   0  0  0  0  0  0  0  0  0  0  0  0
    8.9967   -0.1720    0.0000 C   0  0  0  0  0  0  0  0  0  0  0  0
    8.9965   -0.9970    0.0000 O   0  0  0  0  0  0  0  0  0  0  0  0
    8.2803    0.2375    0.0000 C   0  0  0  0  0  0  0  0  0  0  0  0
    7.5576   -0.1816    0.0000 O   0  0  0  0  0  0  0  0  0  0  0  0
    8.2764    1.0625    0.0000 C   0  0  0  0  0  0  0  0  0  0  0  0
    8.9930    1.4778    0.0000 O   0  0  0  0  0  0  0  0  0  0  0  0
    7.5455    1.4767    0.0000 C   0  0  0  0  0  0  0  0  0  0  0  0
    6.8333    1.0560    0.0000 O   0  0  0  0  0  0  0  0  0  0  0  0
 14 15  2  0  0  0  0 
  5  4  2  0  0  0  0 
 15 16  1  0  0  0  0 
  4  1  1  0  0  0  0 
 16 17  2  0  0  0  0 
 17 12  1  0  0  0  0 
  5 10  1  0  0  0  0 
 15 18  1  0  0  0  0 
  6  7  1  0  0  0  0 
 18 19  1  0  0  0  0 
  7  8  1  0  0  0  0 
  1 20  1  0  0  0  0 
  8  9  2  0  0  0  0 
  9 10  1  0  0  0  0 
  5  6  1  0  0  0  0 
  7 11  2  0  0  0  0 
  8 12  1  0  0  0  0 
  2  3  1  0  0  0  0 
 12 13  2  0  0  0  0 
  3  6  2  0  0  0  0 
 13 14  1  0  0  0  0 
  1  2  2  0  0  0  0 
 21 20  1  1  0  0  0 
 21 22  1  0  0  0  0 
 22 23  1  6  0  0  0 
 22 24  1  0  0  0  0 
 24 25  1  1  0  0  0 
 24 26  1  0  0  0  0 
 26 27  1  6  0  0  0 
 26 28  1  0  0  0  0 
 28 29  1  0  0  0  0 
 28 30  1  1  0  0  0 
 30 31  1  0  0  0  0 
 21 29  1  0  0  0  0 
M  END
>  <MOLREGNO>
463002

>  <CHEMBLID>
CHEMBL465980

>  <SYNONYMS>
7Beta-(Glucosyloxy)Formonometin | Ononin

>  <MAX_PHASE>
0

>  <MOLWEIGHT>
430.4

>  <ALOGP>
.68

>  <PSA>
134.91

>  <HBA>
9

>  <HBD>
4

>  <RO5>
0

>  <RTB>
5

>  <RO3>
N

>  <ACD_MOST_APKA>
12.71

>  <ACD_MOST_BPKA>


>  <ACD_LOGP>
.6

>  <ACD_LOGD>
.6

>  <AROMATIC_RINGS>
2

>  <HEAVY_ATOMS>
31

>  <QED_WEIGHTED>
.54

>  <HBA_LIPINSKI>
9

>  <HBD_LIPINSKI>
4

>  <NUM_LIPINSKI_RO5_VIOLATIONS>
0

>  <MW_MONOISOTOPIC>
430.1264

>  <MOLECULAR_SPECIES>
NEUTRAL

>  <FULL_MOLFORMULA>
C22H22O9

$$$$

  SciTegic01161211222D

 21 23  0  0  0  0            999 V2000
   -4.3198  -13.0714    0.0000 C   0  0
   -4.3209  -13.8983    0.0000 C   0  0
   -3.6065  -14.3110    0.0000 C   0  0
   -3.6083  -12.6590    0.0000 C   0  0
   -2.8933  -13.0678    0.0000 C   0  0
   -2.8899  -13.9004    0.0000 C   0  0
   -2.1711  -14.3115    0.0000 C   0  0
   -1.4511  -13.8945    0.0000 C   0  0
   -1.4546  -13.0619    0.0000 C   0  0
   -2.1780  -12.6463    0.0000 O   0  0
   -5.0338  -12.6594    0.0000 O   0  0
   -2.1689  -15.1360    0.0000 O   0  0
   -0.7360  -14.3048    0.0000 C   0  0
   -0.7376  -15.1297    0.0000 C   0  0
    0.6857  -14.2969    0.0000 C   0  0
   -0.0292  -13.8904    0.0000 C   0  0
    0.6907  -15.1257    0.0000 C   0  0
   -0.0198  -15.5420    0.0000 C   0  0
    1.4073  -15.5335    0.0000 O   0  0
    1.4124  -16.3580    0.0000 C   0  0
    1.3972  -13.8801    0.0000 O   0  0
  9 10  1  0
  5  6  1  0
  1 11  1  0
  7 12  2  0
  2  3  1  0
  8 13  1  0
  3  6  2  0
 13 14  2  0
 14 18  1  0
  1  2  2  0
 17 15  1  0
  5  4  2  0
 15 16  2  0
 16 13  1  0
 17 18  2  0
  4  1  1  0
  5 10  1  0
  6  7  1  0
 17 19  1  0
  7  8  1  0
 19 20  1  0
  8  9  2  0
 15 21  1  0
M  END
>  <MOLREGNO>
407127

>  <CHEMBLID>
CHEMBL241608

>  <SYNONYMS>
Calycosin

>  <MAX_PHASE>
0

>  <MOLWEIGHT>
284.26

>  <ALOGP>
2.37

>  <PSA>
75.99

>  <HBA>
5

>  <HBD>
2

>  <RO5>
0

>  <RTB>
2

>  <RO3>
N

>  <ACD_MOST_APKA>
6.95

>  <ACD_MOST_BPKA>


>  <ACD_LOGP>
1.33

>  <ACD_LOGD>
.75

>  <AROMATIC_RINGS>
2

>  <HEAVY_ATOMS>
21

>  <QED_WEIGHTED>
.89

>  <HBA_LIPINSKI>
5

>  <HBD_LIPINSKI>
2

>  <NUM_LIPINSKI_RO5_VIOLATIONS>
0

>  <MW_MONOISOTOPIC>
284.0685

>  <MOLECULAR_SPECIES>
NEUTRAL

>  <FULL_MOLFORMULA>
C16H12O5

$$$$

  SciTegic01091215432D

 95103  0  0  0  0            999 V2000
   12.1656   -5.7034    0.0000 O   0  0
   12.1589   -4.8808    0.0000 C   0  0  1  0  0  0
   11.4397   -4.4742    0.0000 C   0  0  1  0  0  0
   11.4330   -3.6516    0.0000 C   0  0  2  0  0  0
   12.1433   -3.2321    0.0000 C   0  0  1  0  0  0
   12.8604   -3.6352    0.0000 C   0  0  2  0  0  0
   12.8693   -4.4613    0.0000 O   0  0
   13.5708   -3.2157    0.0000 C   0  0
   14.2900   -3.6223    0.0000 O   0  0
   12.1345   -2.4060    0.0000 O   0  0
   10.7138   -3.2450    0.0000 O   0  0
   10.7293   -4.8937    0.0000 O   0  0
   15.7152   -7.0094    0.0000 O   0  0
   16.4317   -7.4135    0.0000 C   0  0  1  0  0  0
   17.1426   -6.9925    0.0000 C   0  0  1  0  0  0
   17.8592   -7.3966    0.0000 C   0  0  2  0  0  0
   17.8689   -8.2215    0.0000 C   0  0  1  0  0  0
   17.1622   -8.6424    0.0000 C   0  0  2  0  0  0
   16.4415   -8.2384    0.0000 O   0  0
   17.1719   -9.4674    0.0000 C   0  0
   16.4610   -9.8883    0.0000 O   0  0
   18.5896   -8.6255    0.0000 O   0  0
   18.5701   -6.9756    0.0000 O   0  0
   17.1329   -6.1676    0.0000 O   0  0
   12.8561   -6.9529    0.0000 C   0  0  1  0  0  0
   12.8729   -6.1304    0.0000 C   0  0  1  0  0  0
   13.5950   -5.7314    0.0000 C   0  0  2  0  0  0
   14.3002   -6.1548    0.0000 C   0  0  1  0  0  0
   14.2855   -6.9809    0.0000 C   0  0  2  0  0  0
   13.5634   -7.3799    0.0000 O   0  0
   14.9928   -7.4079    0.0000 C   0  0
   15.0223   -5.7557    0.0000 O   0  0
   13.6097   -4.9053    0.0000 O   0  0
   12.1335   -7.3510    0.0000 O   0  0
    2.8381   -9.2230    0.0000 O   0  0
    2.8314   -8.4004    0.0000 C   0  0  1  0  0  0
    2.1122   -7.9938    0.0000 C   0  0  1  0  0  0
    2.1055   -7.1712    0.0000 C   0  0  2  0  0  0
    2.8158   -6.7517    0.0000 C   0  0  1  0  0  0
    3.5329   -7.1548    0.0000 C   0  0  2  0  0  0
    3.5418   -7.9809    0.0000 O   0  0
    4.2433   -6.7353    0.0000 C   0  0
    4.9625   -7.1419    0.0000 O   0  0
    2.8070   -5.9255    0.0000 O   0  0
    1.3863   -6.7646    0.0000 O   0  0
    1.4018   -8.4133    0.0000 O   0  0
   10.0253   -9.4596    0.0000 C   0  0  1  0  0  0
   10.5097  -10.1282    0.0000 C   0  0
   10.0205  -10.7946    0.0000 C   0  0
    9.2376  -10.5364    0.0000 C   0  0  2  0  0  0
    9.2389   -9.7114    0.0000 C   0  0  2  0  0  0
    8.5258   -9.2983    0.0000 C   0  0
    7.8114   -9.7060    0.0000 C   0  0  1  0  0  0
    7.0983   -9.2888    0.0000 O   0  0
    7.8059  -10.5310    0.0000 C   0  0  2  0  0  0
    8.5189  -10.9483    0.0000 C   0  0  1  0  0  0
    8.5176  -11.7733    0.0000 C   0  0
    7.7990  -12.1810    0.0000 C   0  0
    7.0859  -11.7637    0.0000 C   0  0
    7.0914  -10.9387    0.0000 C   0  0  1  0  0  0
    6.3783  -10.5256    0.0000 C   0  0
    5.6639  -10.9334    0.0000 C   0  0
    5.6583  -11.7583    0.0000 C   0  0  1  0  0  0
    6.3714  -12.1756    0.0000 C   0  0
    5.8387  -12.8046    0.0000 C   0  0
    6.8999  -12.8075    0.0000 C   0  0
    4.9439  -12.1661    0.0000 O   0  0
    9.2389   -8.8864    0.0000 C   0  0
    9.2376  -11.3614    0.0000 C   0  0
    7.8059  -11.3560    0.0000 C   0  0
    8.5189  -10.1233    0.0000 H   0  0
   10.0171   -8.6324    0.0000 C   0  0  1  0  0  0
   10.7275   -8.2129    0.0000 C   0  0
    9.2986   -8.2269    0.0000 C   0  0
   10.7338   -9.0407    0.0000 H   0  0
   11.4460   -8.6183    0.0000 C   0  0
   12.1564   -8.1988    0.0000 C   0  0  2  0  0  0
   12.8749   -8.6043    0.0000 C   0  0
   12.8830   -9.4293    0.0000 C   0  0
   13.5853   -8.1848    0.0000 C   0  0
    7.0914  -10.1137    0.0000 H   0  0
    4.2136  -11.7301    0.0000 C   0  0  1  0  0  0
    3.4922  -12.1253    0.0000 C   0  0  1  0  0  0
    2.7864  -11.6981    0.0000 C   0  0  2  0  0  0
    2.8021  -10.8756    0.0000 C   0  0  1  0  0  0
    3.5257  -10.4768    0.0000 C   0  0  2  0  0  0
    4.2314  -10.9041    0.0000 O   0  0
    3.5435   -9.6508    0.0000 C   0  0
    2.0963  -10.4484    0.0000 O   0  0
    2.0628  -12.0969    0.0000 O   0  0
    3.4744  -12.9513    0.0000 O   0  0
   13.5833   -9.0167    0.0000 O   0  0
    4.2083  -12.5542    0.0000 H   0  0
   12.1375   -6.5375    0.0000 H   0  0
   11.4417   -5.2875    0.0000 H   0  0
 17 22  1  6
 16 23  1  1
 15 24  1  6
  3 12  1  6
  2  1  1  0
  2  3  1  0
  3  4  1  0
  4  5  1  0
  5  6  1  0
  6  7  1  0
  2  7  1  0
 25 26  1  0
 26 27  1  0
 27 28  1  0
 28 29  1  0
 29 30  1  0
 25 30  1  0
 29 31  1  1
 28 32  1  6
 27 33  1  1
 26  1  1  6
 31 13  1  0
  6  8  1  1
 25 34  1  0
  8  9  1  0
  5 10  1  6
  4 11  1  1
 14 13  1  1
 14 15  1  0
 15 16  1  0
 16 17  1  0
 17 18  1  0
 18 19  1  0
 14 19  1  0
 56 57  1  0
 57 58  1  0
 58 59  2  0
 59 60  1  0
 55 60  1  0
 60 61  1  0
 61 62  1  0
 62 63  1  0
 63 64  1  0
 59 64  1  0
 64 65  1  0
 64 66  1  0
 63 67  1  1
 51 68  1  1
 50 69  1  6
 55 70  1  1
 56 71  1  1
 60 81  1  6
 47 72  1  0
 47 48  1  0
 72 73  1  0
 48 49  1  0
 72 74  1  6
 49 50  1  0
 47 75  1  6
 50 51  1  0
 73 76  1  0
 47 51  1  0
 76 77  1  0
 51 52  1  0
 77 78  1  0
 52 53  1  0
 77 34  1  1
 53 54  1  6
 78 79  1  0
 53 55  1  0
 78 80  1  0
 55 56  1  0
 50 56  1  0
 18 20  1  1
 20 21  1  0
 36 35  1  1
 36 37  1  0
 37 38  1  0
 38 39  1  0
 39 40  1  0
 40 41  1  0
 36 41  1  0
 40 42  1  1
 82 67  1  0
 82 83  1  0
 83 84  1  0
 84 85  1  0
 85 86  1  0
 86 87  1  0
 82 87  1  0
 86 88  1  1
 85 89  1  6
 84 90  1  1
 83 91  1  6
 88 35  1  0
 42 43  1  0
 78 92  1  0
 39 44  1  6
 82 93  1  6
 38 45  1  1
 25 94  1  6
 37 46  1  6
  2 95  1  6
M  END
>  <MOLREGNO>
1175922

>  <CHEMBLID>
CHEMBL1829228

>  <SYNONYMS>
Mogroside V

>  <MAX_PHASE>
0

>  <MOLWEIGHT>
1287.43

>  <ALOGP>


>  <PSA>


>  <HBA>


>  <HBD>


>  <RO5>


>  <RTB>


>  <RO3>


>  <ACD_MOST_APKA>


>  <ACD_MOST_BPKA>


>  <ACD_LOGP>


>  <ACD_LOGD>


>  <AROMATIC_RINGS>


>  <HEAVY_ATOMS>


>  <QED_WEIGHTED>


>  <HBA_LIPINSKI>


>  <HBD_LIPINSKI>


>  <NUM_LIPINSKI_RO5_VIOLATIONS>


>  <MW_MONOISOTOPIC>
1286.6507

>  <MOLECULAR_SPECIES>


>  <FULL_MOLFORMULA>
C60H102O29

$$$$

  SciTegic11201309402D

 82 92  0  0  0  0            999 V2000
    8.7784  -23.2333    0.0000 C   0  0
    8.7772  -24.0609    0.0000 C   0  0
    9.4901  -24.4739    0.0000 C   0  0
   10.2095  -24.0604    0.0000 C   0  0
   10.2063  -23.2293    0.0000 C   0  0
    9.4881  -22.8205    0.0000 C   0  0
    6.6488  -24.4841    0.0000 C   0  0
    6.6475  -25.3117    0.0000 C   0  0
    7.3605  -25.7246    0.0000 C   0  0
    7.3585  -24.0713    0.0000 C   0  0
    8.0589  -22.8279    0.0000 C   0  0
    7.3459  -23.2478    0.0000 O   0  0
    8.0807  -24.4778    0.0000 C   0  0
    8.0916  -25.2928    0.0000 C   0  0
    8.8052  -25.6947    0.0000 C   0  0
    9.5095  -25.2754    0.0000 O   0  0
    9.4855  -21.9979    0.0000 C   0  0
   10.1997  -21.5827    0.0000 C   0  0
   10.1962  -20.7585    0.0000 C   0  0
    9.4792  -20.3485    0.0000 C   0  0
    8.7643  -20.7687    0.0000 C   0  0
    8.7714  -21.5916    0.0000 C   0  0
    7.3664  -26.5480    0.0000 C   0  0
    6.6520  -26.9630    0.0000 C   0  0
    6.6551  -27.7872    0.0000 C   0  0
    7.3720  -28.1975    0.0000 C   0  0
    8.0870  -27.7775    0.0000 C   0  0
    8.0803  -26.9547    0.0000 C   0  0
    8.0511  -22.0030    0.0000 O   0  0
    8.7634  -22.4125    0.0000 O   0  0
    8.0466  -20.3622    0.0000 O   0  0
    9.4743  -19.5235    0.0000 O   0  0
   10.9157  -21.9926    0.0000 C   0  0
   10.9187  -22.8176    0.0000 O   0  0
   11.6286  -21.5775    0.0000 O   0  0
   10.1979  -22.4033    0.0000 O   0  0
   10.9243  -24.4722    0.0000 O   0  0
    8.8151  -26.5196    0.0000 O   0  0
    7.3766  -29.0225    0.0000 O   0  0
    5.9422  -28.2024    0.0000 O   0  0
    5.9361  -26.5529    0.0000 O   0  0
    5.9325  -25.7231    0.0000 O   0  0
    5.9340  -24.0721    0.0000 O   0  0
   12.3412  -21.9874    0.0000 C   0  0
   13.0551  -21.5738    0.0000 C   0  0  2  0  0  0
   13.7690  -21.9890    0.0000 C   0  0  2  0  0  0
   14.4807  -21.5788    0.0000 C   0  0  1  0  0  0
   14.4837  -20.7534    0.0000 C   0  0  2  0  0  0
   13.7688  -20.3398    0.0000 C   0  0  1  0  0  0
   13.0508  -20.7517    0.0000 O   0  0
   13.7675  -22.8140    0.0000 O   0  0
    8.7862  -27.3671    0.0000 C   0  0
    8.7821  -28.1921    0.0000 O   0  0
   15.1943  -21.9929    0.0000 O   0  0
   15.1991  -20.3426    0.0000 O   0  0
   13.7703  -19.5148    0.0000 O   0  0
   15.1924  -22.8179    0.0000 C   0  0
   15.9060  -23.2321    0.0000 C   0  0
   14.4770  -23.2288    0.0000 O   0  0
   15.8997  -24.0546    0.0000 C   0  0
   16.6124  -24.4687    0.0000 C   0  0
   17.3287  -24.0577    0.0000 C   0  0
   17.3279  -23.2285    0.0000 C   0  0
   16.6147  -22.8183    0.0000 C   0  0
   15.9127  -20.7566    0.0000 C   0  0
   16.6280  -20.3458    0.0000 C   0  0
   15.9108  -21.5816    0.0000 O   0  0
   17.3409  -20.7625    0.0000 C   0  0
   18.0558  -20.3523    0.0000 C   0  0
   18.0581  -19.5264    0.0000 C   0  0
   17.3396  -19.1124    0.0000 C   0  0
   16.6276  -19.5250    0.0000 C   0  0
   16.6101  -25.2937    0.0000 O   0  0
   18.0428  -24.4709    0.0000 O   0  0
   18.0419  -22.8151    0.0000 O   0  0
   17.3385  -18.2874    0.0000 O   0  0
   18.7730  -19.1146    0.0000 O   0  0
   18.7692  -20.7666    0.0000 O   0  0
   14.4853  -19.7534    0.0000 H   0  0
   14.4792  -22.5788    0.0000 H   0  0
   14.6344  -22.4901    0.0000 H   0  0
   12.1874  -21.0767    0.0000 H   0  0
  4 37  1  0
  8  9  1  0
 15 38  2  0
 17 18  2  0
 26 39  1  0
  9 14  2  0
 25 40  1  0
 18 19  1  0
 24 41  1  0
 10  7  1  0
  8 42  1  0
 19 20  2  0
  7 43  1  0
 10 13  2  0
 35 44  1  0
 20 21  1  0
 45 44  1  0
 45 46  1  0
  4  5  1  0
 21 22  2  0
 22 17  1  0
  6 17  1  0
  2  3  1  0
 45 50  1  0
 46 47  1  0
 47 48  1  0
 48 49  1  0
 49 50  1  0
  5  6  2  0
 46 51  1  0
 23 24  2  0
 28 52  1  0
 10 12  1  0
 52 53  2  0
 52 51  1  0
 24 25  1  0
 47 54  1  0
  1 11  1  0
 48 55  1  0
 25 26  2  0
 49 56  1  1
 11 12  1  0
 54 57  1  0
 26 27  1  0
 57 58  1  0
  2 13  1  0
 57 59  2  0
 27 28  2  0
 58 60  2  0
 28 23  1  0
 60 61  1  0
  9 23  1  0
 61 62  2  0
  6  1  1  0
 62 63  1  0
 11 29  2  0
 63 64  2  0
 64 58  1  0
  1  2  2  0
 55 65  1  0
 22 30  1  0
 65 66  1  0
  3  4  2  0
 65 67  2  0
 21 31  1  0
 66 68  2  0
  7  8  2  0
 68 69  1  0
 20 32  1  0
 69 70  2  0
 13 14  1  0
 70 71  1  0
 18 33  1  0
 71 72  2  0
 72 66  1  0
 64 68  1  0
 14 15  1  0
 61 73  1  0
 33 34  2  0
 62 74  1  0
 15 16  1  0
 63 75  1  0
 33 35  1  0
 71 76  1  0
 16  3  1  0
 70 77  1  0
  5 36  1  0
 69 78  1  0
 48 79  1  1
 47 80  1  6
 46 81  1  1
 45 82  1  6
M  END
>  <MOLREGNO>
465142

>  <CHEMBLID>
CHEMBL506814

>  <SYNONYMS>
Punicalagin

>  <MAX_PHASE>
0

>  <MOLWEIGHT>
1084.72

>  <ALOGP>


>  <PSA>


>  <HBA>


>  <HBD>


>  <RO5>


>  <RTB>


>  <RO3>


>  <ACD_MOST_APKA>


>  <ACD_MOST_BPKA>


>  <ACD_LOGP>


>  <ACD_LOGD>


>  <AROMATIC_RINGS>


>  <HEAVY_ATOMS>


>  <QED_WEIGHTED>


>  <HBA_LIPINSKI>


>  <HBD_LIPINSKI>


>  <NUM_LIPINSKI_RO5_VIOLATIONS>


>  <MW_MONOISOTOPIC>
1084.0665

>  <MOLECULAR_SPECIES>


>  <FULL_MOLFORMULA>
C48H28O30

$$$$

  SciTegic11201309402D

 58 65  0  0  0  0            999 V2000
   -2.6294  -22.8801    0.0000 C   0  0
   -2.6307  -23.7076    0.0000 C   0  0
   -1.9177  -24.1205    0.0000 C   0  0
   -1.1984  -23.7072    0.0000 C   0  0
   -1.2015  -22.8760    0.0000 C   0  0
   -1.9197  -22.4673    0.0000 C   0  0
   -4.7590  -24.1309    0.0000 C   0  0
   -4.7603  -24.9584    0.0000 C   0  0
   -4.0473  -25.3713    0.0000 C   0  0
   -4.0493  -23.7180    0.0000 C   0  0
   -3.3489  -22.4747    0.0000 C   0  0
   -4.0620  -22.8946    0.0000 O   0  0
   -3.3272  -24.1245    0.0000 C   0  0
   -3.3162  -24.9396    0.0000 C   0  0
   -2.6027  -25.3415    0.0000 C   0  0
   -1.8985  -24.9222    0.0000 O   0  0
   -1.9223  -21.6447    0.0000 C   0  0
   -1.2082  -21.2294    0.0000 C   0  0
   -1.2116  -20.4052    0.0000 C   0  0
   -1.9286  -19.9953    0.0000 C   0  0
   -2.6435  -20.4156    0.0000 C   0  0
   -2.6364  -21.2384    0.0000 C   0  0
   -4.0416  -26.1948    0.0000 C   0  0
   -4.7559  -26.6097    0.0000 C   0  0
   -4.7527  -27.4339    0.0000 C   0  0
   -4.0359  -27.8442    0.0000 C   0  0
   -3.3208  -27.4242    0.0000 C   0  0
   -3.3276  -26.6013    0.0000 C   0  0
   -3.3568  -21.6498    0.0000 O   0  0
   -2.6446  -22.0593    0.0000 O   0  0
   -3.3613  -20.0089    0.0000 O   0  0
   -1.9335  -19.1703    0.0000 O   0  0
   -0.4922  -21.6394    0.0000 C   0  0
   -0.4893  -22.4644    0.0000 O   0  0
    0.2208  -21.2243    0.0000 O   0  0
   -1.2100  -22.0500    0.0000 O   0  0
   -0.4836  -24.1190    0.0000 O   0  0
   -2.5928  -26.1664    0.0000 O   0  0
   -4.0313  -28.6692    0.0000 O   0  0
   -5.4656  -27.8491    0.0000 O   0  0
   -5.4716  -26.1995    0.0000 O   0  0
   -5.4753  -25.3699    0.0000 O   0  0
   -5.4738  -23.7189    0.0000 O   0  0
    0.9333  -21.6342    0.0000 C   0  0
    1.6471  -21.2206    0.0000 C   0  0  2  0  0  0
    2.3611  -21.6357    0.0000 C   0  0  2  0  0  0
    3.0728  -21.2256    0.0000 C   0  0  1  0  0  0
    3.0758  -20.4003    0.0000 C   0  0  2  0  0  0
    2.3608  -19.9867    0.0000 C   0  0  1  0  0  0
    1.6429  -20.3984    0.0000 O   0  0
    2.3595  -22.4607    0.0000 O   0  0
   -2.6216  -27.0137    0.0000 C   0  0
   -2.6259  -27.8387    0.0000 O   0  0
    3.7864  -21.6397    0.0000 O   0  0
    3.7912  -19.9894    0.0000 O   0  0
    2.3623  -19.1617    0.0000 O   0  0
    3.2264  -22.1369    0.0000 H   0  0
    0.7794  -20.7235    0.0000 H   0  0
 11 12  1  0
 26 27  1  0
  2 13  1  0
 27 28  2  0
 28 23  1  0
  9 23  1  0
  6  1  1  0
 11 29  2  0
  1  2  2  0
 22 30  1  0
  3  4  2  0
 21 31  1  0
  7  8  2  0
 20 32  1  0
 13 14  1  0
 18 33  1  0
 14 15  1  0
 33 34  2  0
 15 16  1  0
 33 35  1  0
 16  3  1  0
  5 36  1  0
  4 37  1  0
  8  9  1  0
 15 38  2  0
 17 18  2  0
 26 39  1  0
  9 14  2  0
 25 40  1  0
 18 19  1  0
 24 41  1  0
 10  7  1  0
  8 42  1  0
 19 20  2  0
  7 43  1  0
 10 13  2  0
 35 44  1  0
 20 21  1  0
 45 44  1  0
 45 46  1  0
  4  5  1  0
 21 22  2  0
 22 17  1  0
  6 17  1  0
  2  3  1  0
 45 50  1  0
 46 47  1  0
 47 48  1  0
 48 49  1  0
 49 50  1  0
  5  6  2  0
 46 51  1  0
 23 24  2  0
 28 52  1  0
 10 12  1  0
 52 53  2  0
 52 51  1  0
 24 25  1  0
 47 54  1  1
  1 11  1  0
 48 55  1  6
 25 26  2  0
 49 56  1  1
 46 57  1  1
 45 58  1  6
M  END
>  <MOLREGNO>
465141

>  <CHEMBLID>
CHEMBL502440

>  <SYNONYMS>
Punicalin | Pumcalin

>  <MAX_PHASE>
0

>  <MOLWEIGHT>
782.53

>  <ALOGP>
1.08

>  <PSA>
377.42

>  <HBA>
22

>  <HBD>
13

>  <RO5>
3

>  <RTB>
0

>  <RO3>
N

>  <ACD_MOST_APKA>
12.46

>  <ACD_MOST_BPKA>


>  <ACD_LOGP>
5.36

>  <ACD_LOGD>
5.36

>  <AROMATIC_RINGS>
4

>  <HEAVY_ATOMS>
56

>  <QED_WEIGHTED>
.07

>  <HBA_LIPINSKI>
22

>  <HBD_LIPINSKI>
13

>  <NUM_LIPINSKI_RO5_VIOLATIONS>
2

>  <MW_MONOISOTOPIC>
782.0603

>  <MOLECULAR_SPECIES>
NEUTRAL

>  <FULL_MOLFORMULA>
C34H22O22

$$$$

  SciTegic01161211212D

 84 91  0  0  0  0            999 V2000
   14.7618  -16.8110    0.0000 O   0  0
   12.5642  -18.8151    0.0000 O   0  0
   12.5817  -17.9903    0.0000 C   0  0  2  0  0  0
   13.3067  -17.5961    0.0000 O   0  0
   13.3260  -16.7750    0.0000 C   0  0  1  0  0  0
   12.6224  -16.3436    0.0000 C   0  0  2  0  0  0
   11.8975  -16.7396    0.0000 C   0  0  1  0  0  0
   11.8764  -17.5670    0.0000 C   0  0  1  0  0  0
   11.1533  -17.9642    0.0000 O   0  0
   11.1934  -16.3097    0.0000 O   0  0
   12.6430  -15.5189    0.0000 O   0  0
   14.0506  -16.3804    0.0000 C   0  0
    8.9917  -21.3250    0.0000 C   0  0
    8.9917  -22.1500    0.0000 C   0  0  1  0  0  0
    9.7037  -22.5583    0.0000 C   0  0
    9.7037  -20.9083    0.0000 C   0  0
   10.4157  -21.3250    0.0000 C   0  0  1  0  0  0
   10.4122  -22.1500    0.0000 C   0  0  1  0  0  0
   11.1210  -22.5632    0.0000 C   0  0
   11.8378  -22.1560    0.0000 C   0  0
   11.1280  -20.9132    0.0000 C   0  0  2  0  0  0
   11.8413  -21.3359    0.0000 C   0  0  1  0  0  0
   11.8583  -19.6806    0.0000 C   0  0  2  0  0  0
   11.1334  -20.0864    0.0000 C   0  0
    9.2833  -23.2708    0.0000 C   0  0
   10.1083  -23.2708    0.0000 C   0  0
    8.2778  -22.5635    0.0000 O   0  0
   10.4083  -20.5000    0.0000 C   0  0
   11.8333  -20.5083    0.0000 C   0  0
   12.5500  -21.7583    0.0000 C   0  0
   12.5753  -20.1024    0.0000 C   0  0  1  0  0  0
   12.5581  -20.9335    0.0000 C   0  0  1  0  0  0
   13.3433  -21.2066    0.0000 C   0  0
   13.8457  -20.5443    0.0000 C   0  0
   13.3710  -19.8619    0.0000 C   0  0  2  0  0  0
   13.3667  -19.0333    0.0000 C   0  0  2  0  0  0
   14.0790  -18.6171    0.0000 C   0  0
   14.7956  -19.0258    0.0000 C   0  0
   15.5079  -18.6096    0.0000 C   0  0
   16.2245  -19.0183    0.0000 C   0  0
   16.9368  -18.6021    0.0000 C   0  0
   16.2288  -19.8433    0.0000 C   0  0
   11.8672  -18.8556    0.0000 O   0  0
   13.4000  -18.2333    0.0000 C   0  0
   11.8625  -18.3958    0.0000 H   0  0
    7.5627  -22.1521    0.0000 C   0  0  2  0  0  0
    7.5638  -21.3284    0.0000 O   0  0
    6.8528  -20.9170    0.0000 C   0  0  1  0  0  0
    6.1365  -21.3270    0.0000 C   0  0  2  0  0  0
    6.1357  -22.1530    0.0000 C   0  0  1  0  0  0
    6.8512  -22.5689    0.0000 C   0  0  1  0  0  0
    6.8526  -23.3939    0.0000 O   0  0
    5.4204  -22.5641    0.0000 O   0  0
    5.4230  -20.9129    0.0000 O   0  0
    6.8547  -20.0920    0.0000 C   0  0
    7.5701  -19.6812    0.0000 O   0  0
    6.1389  -23.8077    0.0000 C   0  0  2  0  0  0
    5.4279  -23.3948    0.0000 O   0  0
    4.7163  -23.8050    0.0000 C   0  0  1  0  0  0
    4.7134  -24.6304    0.0000 C   0  0  2  0  0  0
    5.4284  -25.0438    0.0000 C   0  0  1  0  0  0
    6.1463  -24.6320    0.0000 C   0  0  1  0  0  0
    6.8621  -25.0422    0.0000 O   0  0
    5.4270  -25.8688    0.0000 O   0  0
    3.9981  -25.0414    0.0000 O   0  0
    4.0027  -23.3910    0.0000 C   0  0
    4.0044  -22.5660    0.0000 O   0  0
    7.5583  -22.9750    0.0000 H   0  0
    6.8500  -24.2167    0.0000 H   0  0
   15.4847  -16.4135    0.0000 C   0  0  2  0  0  0
   16.1886  -16.8437    0.0000 O   0  0
   16.9093  -16.4496    0.0000 C   0  0  1  0  0  0
   16.9307  -15.6245    0.0000 C   0  0  2  0  0  0
   16.2251  -15.1950    0.0000 C   0  0  1  0  0  0
   15.4982  -15.5907    0.0000 C   0  0  1  0  0  0
   14.7924  -15.1634    0.0000 O   0  0
   16.2451  -14.3703    0.0000 O   0  0
   17.6551  -15.2296    0.0000 O   0  0
   17.6134  -16.8795    0.0000 C   0  0
   17.5931  -17.7042    0.0000 O   0  0
   10.4042  -22.9708    0.0000 H   0  0
   11.1208  -21.7375    0.0000 H   0  0
   12.5708  -19.2750    0.0000 H   0  0
   14.1104  -19.6145    0.0000 H   0  0
 18 19  1  0
 40 41  1  0
 19 20  1  0
 40 42  1  0
 20 22  1  0
 23 43  1  1
 21 22  1  0
 36 44  1  6
 36  2  1  0
  3  2  1  0
  3 45  1  6
  6 11  1  6
 27 46  1  0
 46 47  1  0
  3  8  1  0
  5 12  1  1
 21 24  1  0
 22 32  1  0
 31 23  1  0
 46 51  1  0
 47 48  1  0
 48 49  1  0
 49 50  1  0
 50 51  1  0
 23 24  1  0
 51 52  1  6
 12  1  1  0
 50 53  1  1
 15 25  1  0
 49 54  1  6
 13 14  1  0
 48 55  1  1
 15 26  1  0
 55 56  1  0
  4  5  1  0
 52 57  1  0
 57 58  1  0
 14 27  1  1
  5  6  1  0
 17 28  1  1
  6  7  1  0
 22 29  1  1
 57 62  1  0
 58 59  1  0
 59 60  1  0
 60 61  1  0
 61 62  1  0
  7  8  1  0
 62 63  1  6
 32 30  1  6
 61 64  1  1
 31 32  1  0
 60 65  1  6
 13 16  1  0
 59 66  1  1
 14 15  1  0
 66 67  1  0
 15 18  1  0
 46 68  1  6
 17 16  1  0
 57 69  1  6
 17 18  1  0
 70  1  1  1
 70 71  1  0
 32 33  1  0
 33 34  1  0
 34 35  1  0
 35 31  1  0
  3  4  1  0
 70 75  1  0
 71 72  1  0
 72 73  1  0
 73 74  1  0
 74 75  1  0
 35 36  1  0
 75 76  1  6
  8  9  1  6
 74 77  1  1
 36 37  1  0
 73 78  1  6
 72 79  1  1
 37 38  1  0
 79 80  1  0
  7 10  1  1
 18 81  1  6
 38 39  1  0
 21 82  1  6
 17 21  1  0
 31 83  1  1
 39 40  2  0
 35 84  1  6
M  END
>  <MOLREGNO>
445888

>  <CHEMBLID>
CHEMBL501515

>  <SYNONYMS>
Ginsenoside Rb1

>  <MAX_PHASE>
0

>  <MOLWEIGHT>
1109.29

>  <ALOGP>


>  <PSA>


>  <HBA>


>  <HBD>


>  <RO5>


>  <RTB>


>  <RO3>


>  <ACD_MOST_APKA>


>  <ACD_MOST_BPKA>


>  <ACD_LOGP>


>  <ACD_LOGD>


>  <AROMATIC_RINGS>


>  <HEAVY_ATOMS>


>  <QED_WEIGHTED>


>  <HBA_LIPINSKI>


>  <HBD_LIPINSKI>


>  <NUM_LIPINSKI_RO5_VIOLATIONS>


>  <MW_MONOISOTOPIC>
1108.6029

>  <MOLECULAR_SPECIES>


>  <FULL_MOLFORMULA>
C54H92O23

$$$$

  CDK    9/16/09,9:20

 81 88  0  0  0  0  0  0  0  0999 V2000
    8.9966  -23.5660    0.0000 O   0  0  0  0  0  0  0  0  0  0  0  0
    9.4420  -24.2604    0.0000 C   0  0  0  0  0  0  0  0  0  0  0  0
   10.2660  -24.2195    0.0000 C   0  0  0  0  0  0  0  0  0  0  0  0
   10.6426  -23.4859    0.0000 O   0  0  0  0  0  0  0  0  0  0  0  0
   10.7133  -24.9124    0.0000 C   0  0  0  0  0  0  0  0  0  0  0  0
   11.5373  -24.8716    0.0000 O   0  0  0  0  0  0  0  0  0  0  0  0
   10.3366  -25.6460    0.0000 C   0  0  0  0  0  0  0  0  0  0  0  0
   10.7840  -26.3389    0.0000 O   0  0  0  0  0  0  0  0  0  0  0  0
    9.5126  -25.6869    0.0000 C   0  0  0  0  0  0  0  0  0  0  0  0
    9.0654  -24.9940    0.0000 O   0  0  0  0  0  0  0  0  0  0  0  0
   -1.7077  -27.1470    0.0000 O   0  0  0  0  0  0  0  0  0  0  0  0
   -2.4219  -27.5595    0.0000 C   0  0  0  0  0  0  0  0  0  0  0  0
   -2.4219  -28.3845    0.0000 C   0  0  0  0  0  0  0  0  0  0  0  0
   -1.7077  -28.7970    0.0000 O   0  0  0  0  0  0  0  0  0  0  0  0
   -3.1360  -28.7970    0.0000 C   0  0  0  0  0  0  0  0  0  0  0  0
   -3.1360  -29.6220    0.0000 O   0  0  0  0  0  0  0  0  0  0  0  0
   -3.8501  -28.3845    0.0000 C   0  0  0  0  0  0  0  0  0  0  0  0
   -4.5642  -28.7970    0.0000 O   0  0  0  0  0  0  0  0  0  0  0  0
   -3.8501  -27.5595    0.0000 C   0  0  0  0  0  0  0  0  0  0  0  0
   -3.1360  -27.1470    0.0000 O   0  0  0  0  0  0  0  0  0  0  0  0
   -4.5642  -27.1470    0.0000 C   0  0  0  0  0  0  0  0  0  0  0  0
   -4.5642  -26.3220    0.0000 O   0  0  0  0  0  0  0  0  0  0  0  0
    5.6589  -22.2292    0.0000 O   0  0  0  0  0  0  0  0  0  0  0  0
    6.4834  -22.2070    0.0000 C   0  0  0  0  0  0  0  0  0  0  0  0
    6.8766  -21.4818    0.0000 C   0  0  0  0  0  0  0  0  0  0  0  0
    6.4454  -20.7787    0.0000 O   0  0  0  0  0  0  0  0  0  0  0  0
    7.7009  -21.4594    0.0000 C   0  0  0  0  0  0  0  0  0  0  0  0
    8.0942  -20.7342    0.0000 O   0  0  0  0  0  0  0  0  0  0  0  0
    8.1321  -22.1624    0.0000 C   0  0  0  0  0  0  0  0  0  0  0  0
    8.9565  -22.1402    0.0000 O   0  0  0  0  0  0  0  0  0  0  0  0
    7.7389  -22.8878    0.0000 C   0  0  0  0  0  0  0  0  0  0  0  0
    6.9144  -22.9100    0.0000 O   0  0  0  0  0  0  0  0  0  0  0  0
    8.1700  -23.5908    0.0000 C   0  0  0  0  0  0  0  0  0  0  0  0
    0.4661  -25.1350    0.0000 C   0  0  0  0  0  0  0  0  0  0  0  0
    0.4661  -25.9646    0.0000 C   0  0  0  0  0  0  0  0  0  0  0  0
    1.1805  -26.3770    0.0000 C   0  0  0  0  0  0  0  0  0  0  0  0
    1.1805  -24.7179    0.0000 C   0  0  0  0  0  0  0  0  0  0  0  0
    1.8996  -25.1350    0.0000 C   0  0  0  0  0  0  0  0  0  0  0  0
    1.8961  -25.9646    0.0000 C   0  0  0  0  0  0  0  0  0  0  0  0
    2.6087  -26.3801    0.0000 C   0  0  0  0  0  0  0  0  0  0  0  0
    3.3296  -25.9707    0.0000 C   0  0  0  0  0  0  0  0  0  0  0  0
    2.6158  -24.7210    0.0000 C   0  0  0  0  0  0  0  0  0  0  0  0
    3.3306  -25.1424    0.0000 C   0  0  0  0  0  0  0  0  0  0  0  0
    3.3441  -23.4859    0.0000 C   0  0  0  0  0  0  0  0  0  0  0  0
    2.6194  -23.8935    0.0000 C   0  0  0  0  0  0  0  0  0  0  0  0
    4.0589  -23.9073    0.0000 C   0  0  0  0  0  0  0  0  0  0  0  0
    4.0491  -24.7331    0.0000 C   0  0  0  0  0  0  0  0  0  0  0  0
    4.8314  -24.9975    0.0000 C   0  0  0  0  0  0  0  0  0  0  0  0
    5.3247  -24.3352    0.0000 C   0  0  0  0  0  0  0  0  0  0  0  0
    4.8471  -23.6615    0.0000 C   0  0  0  0  0  0  0  0  0  0  0  0
    1.8914  -24.3101    0.0000 C   0  0  0  0  0  0  0  0  0  0  0  0
    1.8914  -26.7850    0.0000 H   0  0  0  0  0  0  0  0  0  0  0  0
    0.7594  -27.0875    0.0000 C   0  0  0  0  0  0  0  0  0  0  0  0
    1.5844  -27.0875    0.0000 C   0  0  0  0  0  0  0  0  0  0  0  0
    2.6111  -25.5429    0.0000 H   0  0  0  0  0  0  0  0  0  0  0  0
    3.3214  -24.3146    0.0000 C   0  0  0  0  0  0  0  0  0  0  0  0
    4.0502  -23.0817    0.0000 H   0  0  0  0  0  0  0  0  0  0  0  0
    4.0410  -25.5567    0.0000 C   0  0  0  0  0  0  0  0  0  0  0  0
    5.2510  -22.9442    0.0000 C   0  0  0  0  0  0  0  0  0  0  0  0
    4.5333  -22.5374    0.0000 C   0  0  0  0  0  0  0  0  0  0  0  0
    5.9688  -23.3510    0.0000 C   0  0  0  0  0  0  0  0  0  0  0  0
    5.9754  -24.1759    0.0000 C   0  0  0  0  0  0  0  0  0  0  0  0
    6.6932  -24.5826    0.0000 C   0  0  0  0  0  0  0  0  0  0  0  0
    6.6998  -25.4076    0.0000 C   0  0  0  0  0  0  0  0  0  0  0  0
    7.4176  -25.8143    0.0000 C   0  0  0  0  0  0  0  0  0  0  0  0
    5.9887  -25.8258    0.0000 C   0  0  0  0  0  0  0  0  0  0  0  0
    5.6682  -23.6592    0.0000 H   0  0  0  0  0  0  0  0  0  0  0  0
    3.3526  -22.6609    0.0000 O   0  0  0  0  0  0  0  0  0  0  0  0
   -0.2484  -26.3770    0.0000 O   0  0  0  0  0  0  0  0  0  0  0  0
   -0.9628  -25.9646    0.0000 C   0  0  0  0  0  0  0  0  0  0  0  0
   -1.6762  -26.3230    0.0000 C   0  0  0  0  0  0  0  0  0  0  0  0
   -2.3742  -25.8839    0.0000 C   0  0  0  0  0  0  0  0  0  0  0  0
   -3.1038  -26.2689    0.0000 O   0  0  0  0  0  0  0  0  0  0  0  0
   -2.3427  -25.0598    0.0000 C   0  0  0  0  0  0  0  0  0  0  0  0
   -3.0407  -24.6207    0.0000 O   0  0  0  0  0  0  0  0  0  0  0  0
   -1.6130  -24.6748    0.0000 C   0  0  0  0  0  0  0  0  0  0  0  0
   -0.9150  -25.1139    0.0000 O   0  0  0  0  0  0  0  0  0  0  0  0
   -1.5815  -23.8507    0.0000 C   0  0  0  0  0  0  0  0  0  0  0  0
   -0.8518  -23.4657    0.0000 O   0  0  0  0  0  0  0  0  0  0  0  0
   -0.2566  -25.5473    0.0000 H   0  0  0  0  0  0  0  0  0  0  0  0
   -2.4291  -26.7344    0.0000 H   0  0  0  0  0  0  0  0  0  0  0  0
 38 42  1  0  0  0  0 
 39 40  1  0  0  0  0 
 40 41  1  0  0  0  0 
 41 43  1  0  0  0  0 
 42 43  1  0  0  0  0 
 19 20  1  0  0  0  0 
 19 21  1  1  0  0  0 
 21 22  1  0  0  0  0 
 12 20  1  0  0  0  0 
 42 45  1  0  0  0  0 
 43 47  1  0  0  0  0 
 46 44  1  0  0  0  0 
 44 45  1  0  0  0  0 
 46 47  1  0  0  0  0 
  2  1  1  1  0  0  0 
  2  3  1  0  0  0  0 
  3  4  1  6  0  0  0 
  3  5  1  0  0  0  0 
  5  6  1  1  0  0  0 
 47 48  1  0  0  0  0 
 48 49  1  0  0  0  0 
 49 50  1  0  0  0  0 
 50 46  1  0  0  0  0 
  5  7  1  0  0  0  0 
 38 51  1  1  0  0  0 
  7  8  1  1  0  0  0 
 39 52  1  6  0  0  0 
  7  9  1  0  0  0  0 
 36 53  1  0  0  0  0 
  9 10  1  0  0  0  0 
 36 54  1  0  0  0  0 
  2 10  1  0  0  0  0 
 42 55  1  6  0  0  0 
 43 56  1  1  0  0  0 
 24 23  1  1  0  0  0 
 46 57  1  1  0  0  0 
 24 25  1  0  0  0  0 
 47 58  1  6  0  0  0 
 25 26  1  6  0  0  0 
 50 59  1  0  0  0  0 
 59 23  1  0  0  0  0 
 25 27  1  0  0  0  0 
 59 60  1  6  0  0  0 
 27 28  1  1  0  0  0 
 59 61  1  0  0  0  0 
 27 29  1  0  0  0  0 
 61 62  1  0  0  0  0 
 29 30  1  6  0  0  0 
 62 63  1  0  0  0  0 
 29 31  1  0  0  0  0 
 63 64  2  0  0  0  0 
 31 32  1  0  0  0  0 
 64 65  1  0  0  0  0 
 31 33  1  1  0  0  0 
 64 66  1  0  0  0  0 
 24 32  1  0  0  0  0 
 50 67  1  6  0  0  0 
 34 35  1  0  0  0  0 
 44 68  1  1  0  0  0 
 12 11  1  0  0  0  0 
 35 69  1  1  0  0  0 
 12 13  1  0  0  0  0 
 70 69  1  0  0  0  0 
 33  1  1  0  0  0  0 
 13 14  1  6  0  0  0 
 13 15  1  0  0  0  0 
 34 37  1  0  0  0  0 
 35 36  1  0  0  0  0 
 36 39  1  0  0  0  0 
 38 37  1  0  0  0  0 
 38 39  1  0  0  0  0 
 15 16  1  1  0  0  0 
 15 17  1  0  0  0  0 
 70 71  1  0  0  0  0 
 71 11  1  6  0  0  0 
 71 72  1  0  0  0  0 
 72 73  1  1  0  0  0 
 72 74  1  0  0  0  0 
 74 75  1  6  0  0  0 
 74 76  1  0  0  0  0 
 76 77  1  0  0  0  0 
 76 78  1  1  0  0  0 
 78 79  1  0  0  0  0 
 70 77  1  0  0  0  0 
 17 18  1  6  0  0  0 
 70 80  1  6  0  0  0 
 17 19  1  0  0  0  0 
 12 81  1  6  0  0  0 
M  END
>  <MOLREGNO>
445889

>  <CHEMBLID>
CHEMBL449303

>  <SYNONYMS>
Ginsenoside Rb2

>  <MAX_PHASE>
0

>  <MOLWEIGHT>
1079.27

>  <ALOGP>


>  <PSA>


>  <HBA>


>  <HBD>


>  <RO5>


>  <RTB>


>  <RO3>


>  <ACD_MOST_APKA>


>  <ACD_MOST_BPKA>


>  <ACD_LOGP>


>  <ACD_LOGD>


>  <AROMATIC_RINGS>


>  <HEAVY_ATOMS>


>  <QED_WEIGHTED>


>  <HBA_LIPINSKI>


>  <HBD_LIPINSKI>


>  <NUM_LIPINSKI_RO5_VIOLATIONS>


>  <MW_MONOISOTOPIC>
1078.5924

>  <MOLECULAR_SPECIES>


>  <FULL_MOLFORMULA>
C53H90O22

$$$$

  SciTegic01161211252D

 82 89  0  0  0  0            999 V2000
    5.4202    2.5723    0.0000 O   0  0
    3.2225    0.5682    0.0000 O   0  0
    3.2400    1.3930    0.0000 C   0  0  2  0  0  0
    3.9650    1.7872    0.0000 O   0  0
    3.9844    2.6084    0.0000 C   0  0  1  0  0  0
    3.2807    3.0397    0.0000 C   0  0  2  0  0  0
    2.5559    2.6437    0.0000 C   0  0  1  0  0  0
    2.5347    1.8163    0.0000 C   0  0  1  0  0  0
    1.8116    1.4191    0.0000 O   0  0
    1.8518    3.0736    0.0000 O   0  0
    3.3013    3.8645    0.0000 O   0  0
    4.7089    3.0029    0.0000 C   0  0
   -0.3500   -1.9417    0.0000 C   0  0
   -0.3500   -2.7667    0.0000 C   0  0  1  0  0  0
    0.3620   -3.1750    0.0000 C   0  0
    0.3620   -1.5250    0.0000 C   0  0
    1.0740   -1.9417    0.0000 C   0  0  1  0  0  0
    1.0705   -2.7667    0.0000 C   0  0  1  0  0  0
    1.7793   -3.1799    0.0000 C   0  0
    2.4961   -2.7727    0.0000 C   0  0
    1.7863   -1.5299    0.0000 C   0  0  2  0  0  0
    2.4997   -1.9526    0.0000 C   0  0  1  0  0  0
    2.5167   -0.2973    0.0000 C   0  0  2  0  0  0
    1.7917   -0.7031    0.0000 C   0  0
   -0.0583   -3.8875    0.0000 C   0  0
    0.7667   -3.8875    0.0000 C   0  0
   -1.0639   -3.1802    0.0000 O   0  0
    1.0667   -1.1167    0.0000 C   0  0
    2.4917   -1.1250    0.0000 C   0  0
    3.2083   -2.3750    0.0000 C   0  0
    3.2336   -0.7190    0.0000 C   0  0  1  0  0  0
    3.2165   -1.5501    0.0000 C   0  0  1  0  0  0
    4.0016   -1.8233    0.0000 C   0  0
    4.5041   -1.1610    0.0000 C   0  0
    4.0293   -0.4786    0.0000 C   0  0  2  0  0  0
    4.0250    0.3500    0.0000 C   0  0  2  0  0  0
    4.7373    0.7662    0.0000 C   0  0
    5.4539    0.3575    0.0000 C   0  0
    6.1662    0.7737    0.0000 C   0  0
    6.8828    0.3650    0.0000 C   0  0
    7.5951    0.7812    0.0000 C   0  0
    6.8872   -0.4600    0.0000 C   0  0
    2.5255    0.5277    0.0000 O   0  0
    3.9646    1.1500    0.0000 C   0  0
    2.5208    0.9875    0.0000 H   0  0
   -1.7789   -2.7687    0.0000 C   0  0  2  0  0  0
   -1.7779   -1.9451    0.0000 O   0  0
   -2.4889   -1.5337    0.0000 C   0  0  1  0  0  0
   -3.2052   -1.9437    0.0000 C   0  0  2  0  0  0
   -3.2060   -2.7697    0.0000 C   0  0  1  0  0  0
   -2.4904   -3.1856    0.0000 C   0  0  1  0  0  0
   -2.4890   -4.0106    0.0000 O   0  0
   -3.9212   -3.1808    0.0000 O   0  0
   -3.9187   -1.5295    0.0000 O   0  0
   -2.4870   -0.7087    0.0000 C   0  0
   -1.7715   -0.2978    0.0000 O   0  0
   -3.2028   -4.4243    0.0000 C   0  0  2  0  0  0
   -3.9138   -4.0115    0.0000 O   0  0
   -4.6254   -4.4217    0.0000 C   0  0  1  0  0  0
   -4.6282   -5.2470    0.0000 C   0  0  2  0  0  0
   -3.9132   -5.6605    0.0000 C   0  0  1  0  0  0
   -3.1953   -5.2486    0.0000 C   0  0  1  0  0  0
   -2.4796   -5.6589    0.0000 O   0  0
   -3.9146   -6.4855    0.0000 O   0  0
   -5.3436   -5.6580    0.0000 O   0  0
   -5.3390   -4.0077    0.0000 C   0  0
   -5.3373   -3.1827    0.0000 O   0  0
   -1.7833   -3.5917    0.0000 H   0  0
   -2.4917   -4.8333    0.0000 H   0  0
    6.1431    2.9699    0.0000 C   0  0  2  0  0  0
    6.8469    2.5397    0.0000 O   0  0
    7.5676    2.9338    0.0000 C   0  0
    7.5890    3.7589    0.0000 C   0  0  2  0  0  0
    6.8835    4.1950    0.0000 C   0  0  1  0  0  0
    6.1565    3.7927    0.0000 C   0  0  1  0  0  0
    5.4508    4.2217    0.0000 O   0  0
    6.9034    5.0203    0.0000 O   0  0
    8.3134    4.1546    0.0000 O   0  0
    1.0625   -3.5875    0.0000 H   0  0
    1.7792   -2.3542    0.0000 H   0  0
    3.2292    0.1083    0.0000 H   0  0
    4.8042   -0.4333    0.0000 H   0  0
 17 21  1  0
 39 40  2  0
 18 19  1  0
 40 41  1  0
 19 20  1  0
 40 42  1  0
 20 22  1  0
 23 43  1  1
 21 22  1  0
 36 44  1  6
 36  2  1  0
  3  2  1  0
  3 45  1  6
  6 11  1  6
 27 46  1  0
 46 47  1  0
  3  8  1  0
  5 12  1  1
 21 24  1  0
 22 32  1  0
 31 23  1  0
 46 51  1  0
 47 48  1  0
 48 49  1  0
 49 50  1  0
 50 51  1  0
 23 24  1  0
 51 52  1  6
 12  1  1  0
 50 53  1  1
 15 25  1  0
 49 54  1  6
 13 14  1  0
 48 55  1  1
 15 26  1  0
 55 56  1  0
  4  5  1  0
 52 57  1  0
 57 58  1  0
 14 27  1  1
  5  6  1  0
 17 28  1  1
  6  7  1  0
 22 29  1  1
 57 62  1  0
 58 59  1  0
 59 60  1  0
 60 61  1  0
 61 62  1  0
  7  8  1  0
 62 63  1  6
 32 30  1  6
 61 64  1  1
 31 32  1  0
 60 65  1  6
 13 16  1  0
 59 66  1  1
 14 15  1  0
 66 67  1  0
 15 18  1  0
 46 68  1  6
 17 16  1  0
 57 69  1  6
 17 18  1  0
 70  1  1  1
 70 71  1  0
 32 33  1  0
 33 34  1  0
 34 35  1  0
 35 31  1  0
  3  4  1  0
 70 75  1  0
 71 72  1  0
 72 73  1  0
 73 74  1  0
 74 75  1  0
 35 36  1  0
 75 76  1  6
  8  9  1  6
 74 77  1  1
 36 37  1  0
 73 78  1  6
 18 79  1  6
 37 38  1  0
 21 80  1  6
  7 10  1  1
 31 81  1  1
 38 39  1  0
 35 82  1  6
M  END
>  <MOLREGNO>
445890

>  <CHEMBLID>
CHEMBL507688

>  <SYNONYMS>
Ginsenoside Rb3

>  <MAX_PHASE>
0

>  <MOLWEIGHT>
1079.27

>  <ALOGP>


>  <PSA>


>  <HBA>


>  <HBD>


>  <RO5>


>  <RTB>


>  <RO3>


>  <ACD_MOST_APKA>


>  <ACD_MOST_BPKA>


>  <ACD_LOGP>


>  <ACD_LOGD>


>  <AROMATIC_RINGS>


>  <HEAVY_ATOMS>


>  <QED_WEIGHTED>


>  <HBA_LIPINSKI>


>  <HBD_LIPINSKI>


>  <NUM_LIPINSKI_RO5_VIOLATIONS>


>  <MW_MONOISOTOPIC>
1078.5924

>  <MOLECULAR_SPECIES>


>  <FULL_MOLFORMULA>
C53H90O22

$$$$

  SciTegic06231514502D

 59 64  0  0  1  0            999 V2000
   -2.6365    4.3335    0.0000 O   0  0
   -0.4229    8.3583    0.0000 O   0  0
    0.5082    8.0826    0.0000 O   0  0
   -5.0441    6.0804    0.0000 O   0  0
   -2.3850    2.9269    0.0000 O   0  0
    1.3853    9.2107    0.0000 O   0  0
   -1.0123    4.6239    0.0000 O   0  0
   -0.7944    9.0953    0.0000 O   0  0
    0.0514    3.3625    0.0000 O   0  0
   -0.5092    1.8107    0.0000 O   0  0
   -0.5687   10.7298    0.0000 O   0  0
    0.9596   11.3515    0.0000 O   0  0
   -1.6016    0.8895    0.0000 O   0  0
    2.3751   11.1561    0.0000 O   0  0
   -1.2638    6.0305    0.0000 C   0  0  1  0  0  0
   -0.4517    6.1758    0.0000 C   0  0  1  0  0  0
   -1.7956    6.6613    0.0000 C   0  0  1  0  0  0
   -2.6077    6.5160    0.0000 C   0  0  2  0  0  0
   -0.1714    6.9517    0.0000 C   0  0  1  0  0  0
   -2.8880    5.7401    0.0000 C   0  0  1  0  0  0
   -1.5441    5.2546    0.0000 C   0  0
   -2.3562    5.1094    0.0000 C   0  0  2  0  0  0
    0.6532    6.9249    0.0000 C   0  0  1  0  0  0
   -0.7032    7.5824    0.0000 C   0  0  1  0  0  0
   -3.7001    5.5949    0.0000 C   0  0
   -1.5153    7.4372    0.0000 C   0  0
    0.1997    5.6694    0.0000 C   0  0
   -3.1395    7.1468    0.0000 C   0  0
    1.1596    7.5762    0.0000 C   0  0  2  0  0  0
    0.8825    6.1324    0.0000 C   0  0
   -1.0552    6.9189    0.0000 C   0  0
   -0.3921    5.3529    0.0000 C   0  0
   -4.2320    6.2256    0.0000 C   0  0  2  0  0  0
   -2.3274    7.2920    0.0000 C   0  0
   -3.9517    7.0015    0.0000 C   0  0
   -3.5834    4.7782    0.0000 C   0  0
   -4.3119    5.0414    0.0000 C   0  0
   -2.1047    3.7028    0.0000 C   0  0  2  0  0  0
    1.6659    8.2275    0.0000 C   0  0
    1.8109    7.0699    0.0000 C   0  0
    0.6211    8.8998    0.0000 C   0  0  2  0  0  0
   -1.2926    3.8480    0.0000 C   0  0  1  0  0  0
    2.4832    8.1147    0.0000 C   0  0
   -0.0303    9.4062    0.0000 C   0  0  1  0  0  0
   -0.7607    3.2173    0.0000 C   0  0  2  0  0  0
   -1.8532    2.2961    0.0000 C   0  0  1  0  0  0
   -1.0410    2.4414    0.0000 C   0  0  1  0  0  0
    0.0826   10.2234    0.0000 C   0  0  2  0  0  0
    1.4981   10.0279    0.0000 C   0  0  1  0  0  0
    0.8468   10.5343    0.0000 C   0  0  1  0  0  0
    2.7940    7.3505    0.0000 C   0  0
   -2.1335    1.5202    0.0000 C   0  0
    2.2623   10.3388    0.0000 C   0  0
    3.6113    7.2377    0.0000 C   0  0
    3.9222    6.4735    0.0000 C   0  0
    4.1176    7.8890    0.0000 C   0  0
    0.0421    7.7486    0.0000 H   0  0
   -3.1015    4.9432    0.0000 H   0  0
   -2.0091    5.8644    0.0000 H   0  0
 22  1  1  6
 38  1  1  1
 24  2  1  1
 29  3  1  6
 41  3  1  1
 33  4  1  1
  5 38  1  0
  5 46  1  0
  6 41  1  0
  6 49  1  0
 42  7  1  6
 44  8  1  6
 45  9  1  1
 47 10  1  6
 48 11  1  1
 50 12  1  6
 13 52  1  0
 14 53  1  0
 15 16  1  0
 15 17  1  0
 15 21  1  0
 15 31  1  1
 16 19  1  0
 16 27  1  0
 16 32  1  6
 17 18  1  0
 17 26  1  0
 18 20  1  0
 18 28  1  0
 18 34  1  1
 19 23  1  0
 19 24  1  0
 20 22  1  0
 20 25  1  0
 21 22  1  0
 23 29  1  0
 23 30  1  1
 24 26  1  0
 25 33  1  0
 25 36  1  0
 25 37  1  0
 27 30  1  0
 28 35  1  0
 29 39  1  0
 29 40  1  0
 33 35  1  0
 38 42  1  0
 39 43  1  0
 41 44  1  0
 42 45  1  0
 43 51  1  0
 44 48  1  0
 45 47  1  0
 46 47  1  0
 46 52  1  1
 48 50  1  0
 49 50  1  0
 49 53  1  1
 51 54  2  0
 54 55  1  0
 54 56  1  0
 19 57  1  1
 20 58  1  6
 17 59  1  6
M  END
>  <MOLREGNO>
445894

>  <CHEMBLID>
CHEMBL501637

>  <SYNONYMS>
Ginsenoside Rg1

>  <MAX_PHASE>
0

>  <MOLWEIGHT>
801.01

>  <ALOGP>
1.13

>  <PSA>
239.21

>  <HBA>
14

>  <HBD>
10

>  <RO5>
3

>  <RTB>
10

>  <RO3>
N

>  <ACD_MOST_APKA>


>  <ACD_MOST_BPKA>
2.88

>  <ACD_LOGP>
-1.04

>  <ACD_LOGD>
-1.04

>  <AROMATIC_RINGS>
0

>  <HEAVY_ATOMS>
56

>  <QED_WEIGHTED>
.11

>  <HBA_LIPINSKI>
14

>  <HBD_LIPINSKI>
10

>  <NUM_LIPINSKI_RO5_VIOLATIONS>
2

>  <MW_MONOISOTOPIC>
800.4922

>  <MOLECULAR_SPECIES>
NEUTRAL

>  <FULL_MOLFORMULA>
C42H72O14

$$$$

  CDK    9/16/09,9:20

 61 66  0  0  0  0  0  0  0  0999 V2000
    9.4546   -4.9234    0.0000 O   0  0  0  0  0  0  0  0  0  0  0  0
    9.9238   -5.6017    0.0000 C   0  0  0  0  0  0  0  0  0  0  0  0
   10.7461   -5.5347    0.0000 C   0  0  0  0  0  0  0  0  0  0  0  0
   11.0992   -4.7895    0.0000 O   0  0  0  0  0  0  0  0  0  0  0  0
   11.2152   -6.2129    0.0000 C   0  0  0  0  0  0  0  0  0  0  0  0
   12.0375   -6.1459    0.0000 O   0  0  0  0  0  0  0  0  0  0  0  0
   10.8620   -6.9582    0.0000 C   0  0  0  0  0  0  0  0  0  0  0  0
   11.3312   -7.6364    0.0000 O   0  0  0  0  0  0  0  0  0  0  0  0
   10.0398   -7.0251    0.0000 C   0  0  0  0  0  0  0  0  0  0  0  0
    9.5707   -6.3470    0.0000 O   0  0  0  0  0  0  0  0  0  0  0  0
    9.6867   -7.7705    0.0000 C   0  0  0  0  0  0  0  0  0  0  0  0
   11.6000    1.4300    0.0000 O   0  0  0  0  0  0  0  0  0  0  0  0
    8.5508   -3.5435    0.0000 O   0  0  0  0  0  0  0  0  0  0  0  0
    8.1774   -4.2833    0.0000 C   0  0  0  0  0  0  0  0  0  0  0  0
    8.6310   -4.9723    0.0000 C   0  0  0  0  0  0  0  0  0  0  0  0
    8.2614   -5.7095    0.0000 C   0  0  0  0  0  0  0  0  0  0  0  0
    8.7151   -6.3985    0.0000 O   0  0  0  0  0  0  0  0  0  0  0  0
    7.4382   -5.7577    0.0000 C   0  0  0  0  0  0  0  0  0  0  0  0
    7.0686   -6.4949    0.0000 O   0  0  0  0  0  0  0  0  0  0  0  0
    6.9844   -5.0686    0.0000 C   0  0  0  0  0  0  0  0  0  0  0  0
    7.3540   -4.3314    0.0000 O   0  0  0  0  0  0  0  0  0  0  0  0
    6.1612   -5.1168    0.0000 C   0  0  0  0  0  0  0  0  0  0  0  0
    5.7075   -4.4278    0.0000 O   0  0  0  0  0  0  0  0  0  0  0  0
    6.4105   -1.4759    0.0000 C   0  0  0  0  0  0  0  0  0  0  0  0
    6.4105   -2.3055    0.0000 C   0  0  0  0  0  0  0  0  0  0  0  0
    7.1249   -2.7180    0.0000 C   0  0  0  0  0  0  0  0  0  0  0  0
    7.1249   -1.0589    0.0000 C   0  0  0  0  0  0  0  0  0  0  0  0
    7.8440   -1.4759    0.0000 C   0  0  0  0  0  0  0  0  0  0  0  0
    7.8404   -2.3055    0.0000 C   0  0  0  0  0  0  0  0  0  0  0  0
    8.5531   -2.7210    0.0000 C   0  0  0  0  0  0  0  0  0  0  0  0
    9.2738   -2.3116    0.0000 C   0  0  0  0  0  0  0  0  0  0  0  0
    8.5601   -1.0619    0.0000 C   0  0  0  0  0  0  0  0  0  0  0  0
    9.2748   -1.4834    0.0000 C   0  0  0  0  0  0  0  0  0  0  0  0
    9.2884    0.1731    0.0000 C   0  0  0  0  0  0  0  0  0  0  0  0
    8.5638   -0.2345    0.0000 C   0  0  0  0  0  0  0  0  0  0  0  0
   10.0031   -0.2484    0.0000 C   0  0  0  0  0  0  0  0  0  0  0  0
    9.9934   -1.0741    0.0000 C   0  0  0  0  0  0  0  0  0  0  0  0
   10.7757   -1.3385    0.0000 C   0  0  0  0  0  0  0  0  0  0  0  0
   11.2690   -0.6763    0.0000 C   0  0  0  0  0  0  0  0  0  0  0  0
   10.7914   -0.0025    0.0000 C   0  0  0  0  0  0  0  0  0  0  0  0
    7.8358   -0.6510    0.0000 C   0  0  0  0  0  0  0  0  0  0  0  0
    7.8358   -3.1259    0.0000 H   0  0  0  0  0  0  0  0  0  0  0  0
    6.7037   -3.4284    0.0000 C   0  0  0  0  0  0  0  0  0  0  0  0
    7.5287   -3.4284    0.0000 C   0  0  0  0  0  0  0  0  0  0  0  0
    8.5554   -1.8839    0.0000 H   0  0  0  0  0  0  0  0  0  0  0  0
    9.2658   -0.6556    0.0000 C   0  0  0  0  0  0  0  0  0  0  0  0
    9.9945    0.5773    0.0000 H   0  0  0  0  0  0  0  0  0  0  0  0
    9.9854   -1.8977    0.0000 C   0  0  0  0  0  0  0  0  0  0  0  0
   11.1953    0.7148    0.0000 C   0  0  0  0  0  0  0  0  0  0  0  0
   10.4776    1.1215    0.0000 C   0  0  0  0  0  0  0  0  0  0  0  0
   11.9131    0.3081    0.0000 C   0  0  0  0  0  0  0  0  0  0  0  0
   11.9197   -0.5169    0.0000 C   0  0  0  0  0  0  0  0  0  0  0  0
   12.6374   -0.9236    0.0000 C   0  0  0  0  0  0  0  0  0  0  0  0
   12.6441   -1.7485    0.0000 C   0  0  0  0  0  0  0  0  0  0  0  0
   13.3618   -2.1553    0.0000 C   0  0  0  0  0  0  0  0  0  0  0  0
   11.9330   -2.1668    0.0000 C   0  0  0  0  0  0  0  0  0  0  0  0
   11.6123   -0.0002    0.0000 H   0  0  0  0  0  0  0  0  0  0  0  0
    9.2968    0.9980    0.0000 O   0  0  0  0  0  0  0  0  0  0  0  0
    5.6959   -2.7180    0.0000 O   0  0  0  0  0  0  0  0  0  0  0  0
    9.0013   -4.2807    0.0000 H   0  0  0  0  0  0  0  0  0  0  0  0
    9.1251   -5.8114    0.0000 H   0  0  0  0  0  0  0  0  0  0  0  0
 28 32  1  0  0  0  0 
 29 30  1  0  0  0  0 
 30 31  1  0  0  0  0 
 31 33  1  0  0  0  0 
 32 33  1  0  0  0  0 
  7  9  1  0  0  0  0 
  9 10  1  0  0  0  0 
  9 11  1  6  0  0  0 
  2 10  1  0  0  0  0 
 32 35  1  0  0  0  0 
 33 37  1  0  0  0  0 
 36 34  1  0  0  0  0 
 34 35  1  0  0  0  0 
 36 37  1  0  0  0  0 
 14 13  1  0  0  0  0 
 14 15  1  0  0  0  0 
 15  1  1  6  0  0  0 
 15 16  1  0  0  0  0 
 16 17  1  1  0  0  0 
 37 38  1  0  0  0  0 
 38 39  1  0  0  0  0 
 39 40  1  0  0  0  0 
 40 36  1  0  0  0  0 
 16 18  1  0  0  0  0 
 28 41  1  1  0  0  0 
 18 19  1  6  0  0  0 
 29 42  1  6  0  0  0 
 18 20  1  0  0  0  0 
 26 43  1  0  0  0  0 
 20 21  1  0  0  0  0 
 26 44  1  0  0  0  0 
 20 22  1  1  0  0  0 
 32 45  1  6  0  0  0 
 22 23  1  0  0  0  0 
 33 46  1  1  0  0  0 
 14 21  1  0  0  0  0 
 36 47  1  1  0  0  0 
 24 25  1  0  0  0  0 
 37 48  1  6  0  0  0 
 40 49  1  0  0  0  0 
  2  1  1  0  0  0  0 
 49 50  1  6  0  0  0 
  2  3  1  0  0  0  0 
 49 51  1  0  0  0  0 
  3  4  1  6  0  0  0 
 51 52  1  0  0  0  0 
 24 27  1  0  0  0  0 
 52 53  1  0  0  0  0 
 25 26  1  0  0  0  0 
 53 54  2  0  0  0  0 
 26 29  1  0  0  0  0 
 54 55  1  0  0  0  0 
 28 27  1  0  0  0  0 
 54 56  1  0  0  0  0 
 28 29  1  0  0  0  0 
 40 57  1  6  0  0  0 
  3  5  1  0  0  0  0 
 34 58  1  1  0  0  0 
  5  6  1  6  0  0  0 
 25 59  1  1  0  0  0 
 30 13  1  6  0  0  0 
 49 12  1  0  0  0  0 
  5  7  1  0  0  0  0 
 14 60  1  6  0  0  0 
  7  8  1  1  0  0  0 
  2 61  1  6  0  0  0 
M  END
>  <MOLREGNO>
445895

>  <CHEMBLID>
CHEMBL505747

>  <SYNONYMS>
Ginsenoside Rg2

>  <MAX_PHASE>
0

>  <MOLWEIGHT>
785.01

>  <ALOGP>
2.01

>  <PSA>
218.98

>  <HBA>
13

>  <HBD>
9

>  <RO5>
3

>  <RTB>
9

>  <RO3>
N

>  <ACD_MOST_APKA>
12.85

>  <ACD_MOST_BPKA>


>  <ACD_LOGP>
3.65

>  <ACD_LOGD>
3.65

>  <AROMATIC_RINGS>
0

>  <HEAVY_ATOMS>
55

>  <QED_WEIGHTED>
.12

>  <HBA_LIPINSKI>
13

>  <HBD_LIPINSKI>
9

>  <NUM_LIPINSKI_RO5_VIOLATIONS>
2

>  <MW_MONOISOTOPIC>
784.4973

>  <MOLECULAR_SPECIES>
NEUTRAL

>  <FULL_MOLFORMULA>
C42H72O13

$$$$

  SciTegic06231514502D

 59 64  0  0  1  0            999 V2000
    1.4299    1.3431    0.0000 O   0  0
   -3.1913   -0.9348    0.0000 O   0  0
    3.6637    0.0547    0.0000 O   0  0
   -3.4428    0.4719    0.0000 O   0  0
   -4.8155   -1.2252    0.0000 O   0  0
   -6.1594   -0.7397    0.0000 O   0  0
   -5.8791    0.0362    0.0000 O   0  0
   -5.3185    1.5881    0.0000 O   0  0
   -5.3761   -2.7771    0.0000 O   0  0
   -7.0003   -3.0675    0.0000 O   0  0
   -4.2261    2.5092    0.0000 O   0  0
   -8.0640   -1.8061    0.0000 O   0  0
   -8.3155   -0.3994    0.0000 O   0  0
    0.5890   -0.9846    0.0000 C   0  0  1  0  0  0
    1.4012   -0.8394    0.0000 C   0  0  1  0  0  0
    0.0572   -0.3539    0.0000 C   0  0  1  0  0  0
   -0.7549   -0.4991    0.0000 C   0  0  2  0  0  0
    1.6815   -0.0635    0.0000 C   0  0  1  0  0  0
   -1.0352   -1.2751    0.0000 C   0  0  2  0  0  0
    2.5060   -0.0903    0.0000 C   0  0  2  0  0  0
    1.1496    0.5672    0.0000 C   0  0  1  0  0  0
    0.3087   -1.7605    0.0000 C   0  0
   -1.8473   -1.4203    0.0000 C   0  0
    0.3375    0.4220    0.0000 C   0  0
    2.0525   -1.3458    0.0000 C   0  0
   -0.5034   -1.9058    0.0000 C   0  0
   -1.2867    0.1316    0.0000 C   0  0
    2.7353   -0.8828    0.0000 C   0  0
    1.1209   -1.6153    0.0000 C   0  0
   -2.3791   -0.7896    0.0000 C   0  0  2  0  0  0
    3.0124    0.5610    0.0000 C   0  0  2  0  0  0
    1.4607   -1.6623    0.0000 C   0  0
   -0.4746    0.2768    0.0000 C   0  0
   -2.0988   -0.0136    0.0000 C   0  0
   -1.7305   -2.2370    0.0000 C   0  0
   -2.4591   -1.9738    0.0000 C   0  0
    2.3610    1.0674    0.0000 C   0  0
   -3.7231   -0.3041    0.0000 C   0  0  2  0  0  0
    3.5187    1.2124    0.0000 C   0  0
   -4.5352   -0.4493    0.0000 C   0  0  1  0  0  0
    2.4739    1.8846    0.0000 C   0  0
   -5.0670    0.1814    0.0000 C   0  0  2  0  0  0
   -3.9746    1.1026    0.0000 C   0  0  1  0  0  0
   -4.7867    0.9573    0.0000 C   0  0  1  0  0  0
   -5.6276   -1.3704    0.0000 C   0  0  2  0  0  0
   -5.9079   -2.1463    0.0000 C   0  0  1  0  0  0
    1.8226    2.3910    0.0000 C   0  0
   -3.6943    1.8785    0.0000 C   0  0
   -6.7200   -2.2916    0.0000 C   0  0  2  0  0  0
   -6.9716   -0.8849    0.0000 C   0  0  1  0  0  0
   -7.2519   -1.6609    0.0000 C   0  0  1  0  0  0
    1.9354    3.2082    0.0000 C   0  0
   -7.5034   -0.2542    0.0000 C   0  0
    1.2841    3.7146    0.0000 C   0  0
    2.6996    3.5191    0.0000 C   0  0
   -0.1563   -1.1508    0.0000 H   0  0
    1.8950    0.7334    0.0000 H   0  0
    3.3029   -0.3038    0.0000 H   0  0
   -1.0352   -2.1001    0.0000 H   0  0
 21  1  1  1
 30  2  1  1
 38  2  1  1
 31  3  1  6
  4 38  1  0
  4 43  1  0
 40  5  1  6
 45  5  1  1
  6 45  1  0
  6 50  1  0
 42  7  1  1
 44  8  1  6
 46  9  1  6
 49 10  1  1
 11 48  1  0
 51 12  1  6
 13 53  1  0
 14 15  1  0
 14 16  1  0
 14 22  1  0
 14 29  1  1
 15 18  1  0
 15 25  1  0
 15 32  1  6
 16 17  1  0
 16 24  1  0
 17 19  1  0
 17 27  1  0
 17 33  1  1
 18 20  1  0
 18 21  1  0
 19 23  1  0
 19 26  1  0
 20 28  1  0
 20 31  1  0
 21 24  1  0
 22 26  1  0
 23 30  1  0
 23 35  1  0
 23 36  1  0
 25 28  1  0
 27 34  1  0
 30 34  1  0
 31 37  1  0
 31 39  1  1
 37 41  1  0
 38 40  1  0
 40 42  1  0
 41 47  1  0
 42 44  1  0
 43 44  1  0
 43 48  1  1
 45 46  1  0
 46 49  1  0
 47 52  2  0
 49 51  1  0
 50 51  1  0
 50 53  1  1
 52 54  1  0
 52 55  1  0
 16 56  1  6
 18 57  1  1
 20 58  1  6
 19 59  1  6
M  END
>  <MOLREGNO>
420079

>  <CHEMBLID>
CHEMBL398412

>  <SYNONYMS>
20(S)-Ginsenoside Rg3

>  <MAX_PHASE>
0

>  <MOLWEIGHT>
785.01

>  <ALOGP>
2.3

>  <PSA>
218.98

>  <HBA>
13

>  <HBD>
9

>  <RO5>
3

>  <RTB>
10

>  <RO3>
N

>  <ACD_MOST_APKA>
10.46

>  <ACD_MOST_BPKA>


>  <ACD_LOGP>
3.51

>  <ACD_LOGD>
3.51

>  <AROMATIC_RINGS>
0

>  <HEAVY_ATOMS>
55

>  <QED_WEIGHTED>
.12

>  <HBA_LIPINSKI>
13

>  <HBD_LIPINSKI>
9

>  <NUM_LIPINSKI_RO5_VIOLATIONS>
2

>  <MW_MONOISOTOPIC>
784.4973

>  <MOLECULAR_SPECIES>
NEUTRAL

>  <FULL_MOLFORMULA>
C42H72O13

$$$$

  CDK    9/16/09,9:20

 50 54  0  0  0  0  0  0  0  0999 V2000
   -1.5227  -15.7033    0.0000 C   0  0  0  0  0  0  0  0  0  0  0  0
   -2.2395  -16.1117    0.0000 O   0  0  0  0  0  0  0  0  0  0  0  0
   -2.2473  -16.9358    0.0000 C   0  0  0  0  0  0  0  0  0  0  0  0
   -1.5354  -17.3556    0.0000 C   0  0  0  0  0  0  0  0  0  0  0  0
   -0.8182  -16.9497    0.0000 C   0  0  0  0  0  0  0  0  0  0  0  0
   -0.8091  -16.1219    0.0000 C   0  0  0  0  0  0  0  0  0  0  0  0
   -0.0903  -15.7133    0.0000 O   0  0  0  0  0  0  0  0  0  0  0  0
   -2.9621  -17.3430    0.0000 C   0  0  0  0  0  0  0  0  0  0  0  0
   -1.5175  -14.8806    0.0000 O   0  0  0  0  0  0  0  0  0  0  0  0
   -3.6405  -12.8181    0.0000 C   0  0  0  0  0  0  0  0  0  0  0  0
   -3.6405  -13.6450    0.0000 C   0  0  0  0  0  0  0  0  0  0  0  0
   -2.9304  -14.0542    0.0000 C   0  0  0  0  0  0  0  0  0  0  0  0
   -2.9304  -12.4005    0.0000 C   0  0  0  0  0  0  0  0  0  0  0  0
   -2.2161  -12.8181    0.0000 C   0  0  0  0  0  0  0  0  0  0  0  0
   -2.2214  -13.6449    0.0000 C   0  0  0  0  0  0  0  0  0  0  0  0
   -1.5120  -14.0574    0.0000 C   0  0  0  0  0  0  0  0  0  0  0  0
   -0.7946  -13.6499    0.0000 C   0  0  0  0  0  0  0  0  0  0  0  0
   -1.5055  -12.4079    0.0000 C   0  0  0  0  0  0  0  0  0  0  0  0
   -0.7934  -12.8305    0.0000 C   0  0  0  0  0  0  0  0  0  0  0  0
   -0.7759  -11.1728    0.0000 C   0  0  0  0  0  0  0  0  0  0  0  0
   -1.4974  -11.5782    0.0000 C   0  0  0  0  0  0  0  0  0  0  0  0
   -0.0596  -11.5955    0.0000 C   0  0  0  0  0  0  0  0  0  0  0  0
   -0.0716  -12.4245    0.0000 C   0  0  0  0  0  0  0  0  0  0  0  0
    0.7067  -12.6928    0.0000 C   0  0  0  0  0  0  0  0  0  0  0  0
    1.2038  -12.0308    0.0000 C   0  0  0  0  0  0  0  0  0  0  0  0
    0.7313  -11.3535    0.0000 C   0  0  0  0  0  0  0  0  0  0  0  0
   -4.3577  -14.0579    0.0000 O   0  0  0  0  0  0  0  0  0  0  0  0
   -3.3495  -14.7651    0.0000 C   0  0  0  0  0  0  0  0  0  0  0  0
   -2.5227  -14.7651    0.0000 C   0  0  0  0  0  0  0  0  0  0  0  0
   -2.2231  -11.9954    0.0000 C   0  0  0  0  0  0  0  0  0  0  0  0
   -0.8013  -12.0038    0.0000 C   0  0  0  0  0  0  0  0  0  0  0  0
    0.9986  -10.5734    0.0000 C   0  0  0  0  0  0  0  0  0  0  0  0
   -0.0800  -13.2505    0.0000 C   0  0  0  0  0  0  0  0  0  0  0  0
    1.5540  -11.3516    0.0000 H   0  0  0  0  0  0  0  0  0  0  0  0
   -2.2271  -14.4639    0.0000 H   0  0  0  0  0  0  0  0  0  0  0  0
   -1.5125  -13.2298    0.0000 H   0  0  0  0  0  0  0  0  0  0  0  0
   -0.0665  -10.7700    0.0000 H   0  0  0  0  0  0  0  0  0  0  0  0
    1.2091   -9.7727    0.0000 O   0  0  0  0  0  0  0  0  0  0  0  0
    1.7861  -10.8114    0.0000 C   0  0  0  0  0  0  0  0  0  0  0  0
    1.9736  -11.6125    0.0000 C   0  0  0  0  0  0  0  0  0  0  0  0
    0.2101  -10.3385    0.0000 C   0  0  0  0  0  0  0  0  0  0  0  0
    2.7611  -11.8505    0.0000 C   0  0  0  0  0  0  0  0  0  0  0  0
    2.9487  -12.6516    0.0000 C   0  0  0  0  0  0  0  0  0  0  0  0
    3.7362  -12.8897    0.0000 C   0  0  0  0  0  0  0  0  0  0  0  0
    2.3487  -13.2145    0.0000 C   0  0  0  0  0  0  0  0  0  0  0  0
   -2.2396  -15.2907    0.0000 H   0  0  0  0  0  0  0  0  0  0  0  0
   -0.1056  -17.3675    0.0000 O   0  0  0  0  0  0  0  0  0  0  0  0
   -1.5416  -18.1831    0.0000 O   0  0  0  0  0  0  0  0  0  0  0  0
   -3.6765  -16.9213    0.0000 O   0  0  0  0  0  0  0  0  0  0  0  0
   -0.7648  -10.3502    0.0000 O   0  0  0  0  0  0  0  0  0  0  0  0
 14 13  1  0  0  0  0 
 14 15  1  0  0  0  0 
 14 18  1  0  0  0  0 
 15 16  1  0  0  0  0 
 16 17  1  0  0  0  0 
 17 19  1  0  0  0  0 
 18 19  1  0  0  0  0 
 18 21  1  0  0  0  0 
 19 23  1  0  0  0  0 
 22 20  1  0  0  0  0 
 20 21  1  0  0  0  0 
 22 23  1  0  0  0  0 
 23 24  1  0  0  0  0 
 24 25  1  0  0  0  0 
 25 26  1  0  0  0  0 
 26 22  1  0  0  0  0 
 11 27  1  1  0  0  0 
 12 28  1  0  0  0  0 
 12 29  1  0  0  0  0 
 14 30  1  1  0  0  0 
 19 31  1  1  0  0  0 
 26 32  1  0  0  0  0 
 23 33  1  6  0  0  0 
 26 34  1  6  0  0  0 
  1  9  1  0  0  0  0 
 15 35  1  6  0  0  0 
  1  2  1  0  0  0  0 
 18 36  1  6  0  0  0 
  1  6  1  0  0  0  0 
 22 37  1  1  0  0  0 
  2  3  1  0  0  0  0 
 32 38  1  1  0  0  0 
  3  4  1  0  0  0  0 
 32 39  1  0  0  0  0 
  4  5  1  0  0  0  0 
 39 40  1  0  0  0  0 
  5  6  1  0  0  0  0 
 32 41  1  0  0  0  0 
  6  7  1  6  0  0  0 
 40 42  1  0  0  0  0 
 42 43  2  0  0  0  0 
 43 44  1  0  0  0  0 
  3  8  1  1  0  0  0 
 43 45  1  0  0  0  0 
 16  9  1  6  0  0  0 
  1 46  1  6  0  0  0 
 10 11  1  0  0  0  0 
 10 13  1  0  0  0  0 
 11 12  1  0  0  0  0 
 12 15  1  0  0  0  0 
  4 48  1  6  0  0  0 
  5 47  1  1  0  0  0 
  8 49  1  0  0  0  0 
 20 50  1  1  0  0  0 
M  END
>  <MOLREGNO>
505583

>  <CHEMBLID>
CHEMBL466844

>  <SYNONYMS>
Ginsenoside Rh1

>  <MAX_PHASE>
0

>  <MOLWEIGHT>
638.87

>  <ALOGP>
2.87

>  <PSA>
160.07

>  <HBA>
9

>  <HBD>
7

>  <RO5>
2

>  <RTB>
7

>  <RO3>
N

>  <ACD_MOST_APKA>
12.91

>  <ACD_MOST_BPKA>


>  <ACD_LOGP>
3.29

>  <ACD_LOGD>
3.29

>  <AROMATIC_RINGS>
0

>  <HEAVY_ATOMS>
45

>  <QED_WEIGHTED>
.16

>  <HBA_LIPINSKI>
9

>  <HBD_LIPINSKI>
7

>  <NUM_LIPINSKI_RO5_VIOLATIONS>
1

>  <MW_MONOISOTOPIC>
638.4394

>  <MOLECULAR_SPECIES>
NEUTRAL

>  <FULL_MOLFORMULA>
C36H62O9

$$$$

  Mrv0541 05271418412D          

 49 53  0  0  0  0            999 V2000
   -3.2787   -3.3507    0.0000 O   0  0  0  0  0  0  0  0  0  0  0  0
   -3.2787   -2.5243    0.0000 C   0  0  1  0  0  0  0  0  0  0  0  0
   -2.5535   -2.1117    0.0000 C   0  0  1  0  0  0  0  0  0  0  0  0
   -2.5535   -1.2814    0.0000 O   0  0  0  0  0  0  0  0  0  0  0  0
   -3.2727   -0.8689    0.0000 C   0  0  1  0  0  0  0  0  0  0  0  0
   -3.9930   -1.2814    0.0000 C   0  0  2  0  0  0  0  0  0  0  0  0
   -3.9930   -2.1066    0.0000 C   0  0  2  0  0  0  0  0  0  0  0  0
   -4.7142   -2.5193    0.0000 O   0  0  0  0  0  0  0  0  0  0  0  0
   -4.7103   -0.8673    0.0000 O   0  0  0  0  0  0  0  0  0  0  0  0
   -3.2727   -0.0422    0.0000 C   0  0  0  0  0  0  0  0  0  0  0  0
   -4.0542    0.2405    0.0000 O   0  0  0  0  0  0  0  0  0  0  0  0
   -1.8396   -2.5244    0.0000 O   0  0  0  0  0  0  0  0  0  0  0  0
   -1.1302   -2.1118    0.0000 C   0  0  2  0  0  0  0  0  0  0  0  0
   -0.4166   -2.5202    0.0000 C   0  0  0  0  0  0  0  0  0  0  0  0
    0.2970   -2.1118    0.0000 C   0  0  1  0  0  0  0  0  0  0  0  0
    0.2970   -1.2869    0.0000 C   0  0  1  0  0  0  0  0  0  0  0  0
    1.0106   -0.8703    0.0000 C   0  0  2  0  0  0  0  0  0  0  0  0
    1.7201   -1.2828    0.0000 C   0  0  2  0  0  0  0  0  0  0  0  0
    2.4459   -0.8745    0.0000 C   0  0  1  0  0  0  0  0  0  0  0  0
    2.4459   -0.0495    0.0000 C   0  0  2  0  0  0  0  0  0  0  0  0
    1.7201    0.3754    0.0000 C   0  0  1  0  0  0  0  0  0  0  0  0
    1.0106   -0.0371    0.0000 C   0  0  0  0  0  0  0  0  0  0  0  0
    1.7201    1.2003    0.0000 O   0  0  0  0  0  0  0  0  0  0  0  0
    3.2337    0.2021    0.0000 C   0  0  1  0  0  0  0  0  0  0  0  0
    3.2337    1.0271    0.0000 C   0  0  1  0  0  0  0  0  0  0  0  0
    3.9350    1.4436    0.0000 C   0  0  0  0  0  0  0  0  0  0  0  0
    4.6610    1.0395    0.0000 C   0  0  0  0  0  0  0  0  0  0  0  0
    5.3704    1.4519    0.0000 C   0  0  0  0  0  0  0  0  0  0  0  0
    6.0840    1.0436    0.0000 C   0  0  0  0  0  0  0  0  0  0  0  0
    6.7976    1.4643    0.0000 C   0  0  0  0  0  0  0  0  0  0  0  0
    6.0840    0.2186    0.0000 C   0  0  0  0  0  0  0  0  0  0  0  0
    2.8172    1.7406    0.0000 C   0  0  0  0  0  0  0  0  0  0  0  0
    2.5161    0.6187    0.0000 O   0  0  0  0  0  0  0  0  0  0  0  0
    3.7082   -0.4743    0.0000 C   0  0  0  0  0  0  0  0  0  0  0  0
    3.2214   -1.1384    0.0000 C   0  0  0  0  0  0  0  0  0  0  0  0
    3.9474    0.6187    0.0000 H   0  0  0  0  0  0  0  0  0  0  0  0
    3.1596   -0.4619    0.0000 H   0  0  0  0  0  0  0  0  0  0  0  0
    2.4459   -1.6994    0.0000 C   0  0  0  0  0  0  0  0  0  0  0  0
    1.7201   -2.1077    0.0000 C   0  0  0  0  0  0  0  0  0  0  0  0
    1.0106   -2.5202    0.0000 C   0  0  0  0  0  0  0  0  0  0  0  0
    1.7201   -0.4496    0.0000 C   0  0  0  0  0  0  0  0  0  0  0  0
    1.0106   -1.6953    0.0000 H   0  0  0  0  0  0  0  0  0  0  0  0
   -0.4166   -0.8621    0.0000 C   0  0  0  0  0  0  0  0  0  0  0  0
   -1.1302   -1.2869    0.0000 C   0  0  0  0  0  0  0  0  0  0  0  0
    0.2970   -0.4496    0.0000 C   0  0  0  0  0  0  0  0  0  0  0  0
    0.3754   -2.7512    0.0000 H   0  0  0  0  0  0  0  0  0  0  0  0
   -0.8291   -3.2337    0.0000 C   0  0  0  0  0  0  0  0  0  0  0  0
   -0.2475   -3.1843    0.0000 C   0  0  0  0  0  0  0  0  0  0  0  0
   -2.5535   -2.9327    0.0000 H   0  0  0  0  0  0  0  0  0  0  0  0
  2  1  1  6  0  0  0
  3  2  1  0  0  0  0
  4  3  1  0  0  0  0
  5  4  1  0  0  0  0
  6  5  1  0  0  0  0
  7  6  1  0  0  0  0
  2  7  1  0  0  0  0
  7  8  1  1  0  0  0
  6  9  1  6  0  0  0
  5 10  1  1  0  0  0
 11 10  1  0  0  0  0
  3 12  1  0  0  0  0
 13 12  1  1  0  0  0
 13 14  1  0  0  0  0
 14 15  1  0  0  0  0
 16 15  1  0  0  0  0
 16 17  1  0  0  0  0
 17 18  1  0  0  0  0
 19 18  1  0  0  0  0
 20 19  1  0  0  0  0
 20 21  1  0  0  0  0
 21 22  1  0  0  0  0
 22 17  1  0  0  0  0
 21 23  1  1  0  0  0
 24 20  1  0  0  0  0
 25 24  1  0  0  0  0
 26 25  1  0  0  0  0
 27 26  1  0  0  0  0
 28 27  1  0  0  0  0
 29 28  2  0  0  0  0
 30 29  1  0  0  0  0
 31 29  1  0  0  0  0
 25 32  1  0  0  0  0
 25 33  1  1  0  0  0
 24 34  1  0  0  0  0
 34 35  1  0  0  0  0
 35 19  1  0  0  0  0
 24 36  1  6  0  0  0
 20 37  1  1  0  0  0
 19 38  1  6  0  0  0
 39 18  1  0  0  0  0
 40 39  1  0  0  0  0
 15 40  1  0  0  0  0
 18 41  1  1  0  0  0
 17 42  1  6  0  0  0
 43 16  1  0  0  0  0
 44 43  1  0  0  0  0
 44 13  1  0  0  0  0
 16 45  1  1  0  0  0
 15 46  1  6  0  0  0
 47 14  1  0  0  0  0
 48 14  1  0  0  0  0
  3 49  1  6  0  0  0
M  END
>  <MOLREGNO>
1150505

>  <CHEMBLID>
CHEMBL1783834

>  <SYNONYMS>
Ginsenoside Rh2 | 20(S)-Ginsenoside

>  <MAX_PHASE>
0

>  <MOLWEIGHT>
622.87

>  <ALOGP>
4.04

>  <PSA>
139.84

>  <HBA>
8

>  <HBD>
6

>  <RO5>
2

>  <RTB>
7

>  <RO3>
N

>  <ACD_MOST_APKA>
2.14

>  <ACD_MOST_BPKA>


>  <ACD_LOGP>
-.21

>  <ACD_LOGD>
-4.04

>  <AROMATIC_RINGS>
0

>  <HEAVY_ATOMS>
44

>  <QED_WEIGHTED>
.19

>  <HBA_LIPINSKI>
8

>  <HBD_LIPINSKI>
6

>  <NUM_LIPINSKI_RO5_VIOLATIONS>
1

>  <MW_MONOISOTOPIC>
622.4445

>  <MOLECULAR_SPECIES>
ACID

>  <FULL_MOLFORMULA>
C36H62O8

$$$$

  CDK    9/16/09,9:20

 81 88  0  0  0  0  0  0  0  0999 V2000
   19.0169   -2.0914    0.0000 O   0  0  0  0  0  0  0  0  0  0  0  0
   18.6281   -1.3641    0.0000 C   0  0  0  0  0  0  0  0  0  0  0  0
   17.8037   -1.3368    0.0000 C   0  0  0  0  0  0  0  0  0  0  0  0
   17.3678   -2.0368    0.0000 O   0  0  0  0  0  0  0  0  0  0  0  0
   17.4150   -0.6094    0.0000 C   0  0  0  0  0  0  0  0  0  0  0  0
   16.5904   -0.5821    0.0000 O   0  0  0  0  0  0  0  0  0  0  0  0
   17.8509    0.0906    0.0000 C   0  0  0  0  0  0  0  0  0  0  0  0
   17.4623    0.8180    0.0000 O   0  0  0  0  0  0  0  0  0  0  0  0
   18.6754    0.0634    0.0000 C   0  0  0  0  0  0  0  0  0  0  0  0
   19.0640   -0.6639    0.0000 O   0  0  0  0  0  0  0  0  0  0  0  0
   19.1113    0.7635    0.0000 C   0  0  0  0  0  0  0  0  0  0  0  0
   11.6532   -7.0125    0.0000 O   0  0  0  0  0  0  0  0  0  0  0  0
   10.9391   -7.4250    0.0000 C   0  0  0  0  0  0  0  0  0  0  0  0
   10.9391   -8.2500    0.0000 C   0  0  0  0  0  0  0  0  0  0  0  0
   11.6532   -8.6624    0.0000 O   0  0  0  0  0  0  0  0  0  0  0  0
   10.2251   -8.6624    0.0000 C   0  0  0  0  0  0  0  0  0  0  0  0
   10.2251   -9.4874    0.0000 O   0  0  0  0  0  0  0  0  0  0  0  0
    9.5110   -8.2500    0.0000 C   0  0  0  0  0  0  0  0  0  0  0  0
    8.7969   -8.6624    0.0000 O   0  0  0  0  0  0  0  0  0  0  0  0
    9.5110   -7.4250    0.0000 C   0  0  0  0  0  0  0  0  0  0  0  0
   10.2251   -7.0125    0.0000 O   0  0  0  0  0  0  0  0  0  0  0  0
    8.7969   -7.0125    0.0000 C   0  0  0  0  0  0  0  0  0  0  0  0
    8.7969   -6.1875    0.0000 O   0  0  0  0  0  0  0  0  0  0  0  0
   13.8269   -5.0004    0.0000 C   0  0  0  0  0  0  0  0  0  0  0  0
   13.8269   -5.8300    0.0000 C   0  0  0  0  0  0  0  0  0  0  0  0
   14.5414   -6.2425    0.0000 C   0  0  0  0  0  0  0  0  0  0  0  0
   14.5414   -4.5833    0.0000 C   0  0  0  0  0  0  0  0  0  0  0  0
   15.2604   -5.0004    0.0000 C   0  0  0  0  0  0  0  0  0  0  0  0
   15.2568   -5.8300    0.0000 C   0  0  0  0  0  0  0  0  0  0  0  0
   15.9696   -6.2455    0.0000 C   0  0  0  0  0  0  0  0  0  0  0  0
   16.6903   -5.8361    0.0000 C   0  0  0  0  0  0  0  0  0  0  0  0
   15.9767   -4.5864    0.0000 C   0  0  0  0  0  0  0  0  0  0  0  0
   16.6913   -5.0078    0.0000 C   0  0  0  0  0  0  0  0  0  0  0  0
   16.7049   -3.3514    0.0000 C   0  0  0  0  0  0  0  0  0  0  0  0
   15.9803   -3.7590    0.0000 C   0  0  0  0  0  0  0  0  0  0  0  0
   17.4196   -3.7729    0.0000 C   0  0  0  0  0  0  0  0  0  0  0  0
   17.4099   -4.5986    0.0000 C   0  0  0  0  0  0  0  0  0  0  0  0
   18.1922   -4.8631    0.0000 C   0  0  0  0  0  0  0  0  0  0  0  0
   18.6854   -4.2007    0.0000 C   0  0  0  0  0  0  0  0  0  0  0  0
   18.2079   -3.5270    0.0000 C   0  0  0  0  0  0  0  0  0  0  0  0
   15.2523   -4.1755    0.0000 C   0  0  0  0  0  0  0  0  0  0  0  0
   15.2523   -6.6504    0.0000 H   0  0  0  0  0  0  0  0  0  0  0  0
   14.1202   -6.9529    0.0000 C   0  0  0  0  0  0  0  0  0  0  0  0
   14.9452   -6.9529    0.0000 C   0  0  0  0  0  0  0  0  0  0  0  0
   15.9718   -5.4083    0.0000 H   0  0  0  0  0  0  0  0  0  0  0  0
   16.6823   -4.1801    0.0000 C   0  0  0  0  0  0  0  0  0  0  0  0
   17.4110   -2.9471    0.0000 H   0  0  0  0  0  0  0  0  0  0  0  0
   17.4018   -5.4221    0.0000 C   0  0  0  0  0  0  0  0  0  0  0  0
   18.6117   -2.8096    0.0000 C   0  0  0  0  0  0  0  0  0  0  0  0
   17.8940   -2.4029    0.0000 C   0  0  0  0  0  0  0  0  0  0  0  0
   19.3296   -3.2164    0.0000 C   0  0  0  0  0  0  0  0  0  0  0  0
   19.3362   -4.0414    0.0000 C   0  0  0  0  0  0  0  0  0  0  0  0
   20.0539   -4.4480    0.0000 C   0  0  0  0  0  0  0  0  0  0  0  0
   20.0605   -5.2730    0.0000 C   0  0  0  0  0  0  0  0  0  0  0  0
   20.7783   -5.6798    0.0000 C   0  0  0  0  0  0  0  0  0  0  0  0
   19.3495   -5.6912    0.0000 C   0  0  0  0  0  0  0  0  0  0  0  0
   19.0288   -3.5246    0.0000 H   0  0  0  0  0  0  0  0  0  0  0  0
   16.7133   -2.5265    0.0000 O   0  0  0  0  0  0  0  0  0  0  0  0
   13.1125   -6.2425    0.0000 O   0  0  0  0  0  0  0  0  0  0  0  0
   12.3980   -5.8300    0.0000 C   0  0  0  0  0  0  0  0  0  0  0  0
   11.6848   -6.1884    0.0000 C   0  0  0  0  0  0  0  0  0  0  0  0
   10.9868   -5.7493    0.0000 C   0  0  0  0  0  0  0  0  0  0  0  0
   10.2571   -6.1343    0.0000 O   0  0  0  0  0  0  0  0  0  0  0  0
   11.0183   -4.9253    0.0000 C   0  0  0  0  0  0  0  0  0  0  0  0
   10.3202   -4.4862    0.0000 O   0  0  0  0  0  0  0  0  0  0  0  0
   11.7480   -4.5402    0.0000 C   0  0  0  0  0  0  0  0  0  0  0  0
   12.4460   -4.9793    0.0000 O   0  0  0  0  0  0  0  0  0  0  0  0
   11.7795   -3.7162    0.0000 C   0  0  0  0  0  0  0  0  0  0  0  0
   12.5091   -3.3312    0.0000 O   0  0  0  0  0  0  0  0  0  0  0  0
   13.1042   -5.4127    0.0000 H   0  0  0  0  0  0  0  0  0  0  0  0
   10.9318   -6.5998    0.0000 H   0  0  0  0  0  0  0  0  0  0  0  0
   18.7198    1.4928    0.0000 O   0  0  0  0  0  0  0  0  0  0  0  0
   19.2213    2.1466    0.0000 C   0  0  0  0  0  0  0  0  0  0  0  0
   18.9851    2.9369    0.0000 C   0  0  0  0  0  0  0  0  0  0  0  0
   18.2056    3.2127    0.0000 O   0  0  0  0  0  0  0  0  0  0  0  0
   19.6629    3.4109    0.0000 C   0  0  0  0  0  0  0  0  0  0  0  0
   19.6840    4.2319    0.0000 O   0  0  0  0  0  0  0  0  0  0  0  0
   20.3180    2.9049    0.0000 C   0  0  0  0  0  0  0  0  0  0  0  0
   20.0454    2.1312    0.0000 O   0  0  0  0  0  0  0  0  0  0  0  0
   21.1084    3.1412    0.0000 C   0  0  0  0  0  0  0  0  0  0  0  0
   21.6784    2.5495    0.0000 O   0  0  0  0  0  0  0  0  0  0  0  0
 38 39  1  0  0  0  0 
 39 40  1  0  0  0  0 
 40 36  1  0  0  0  0 
 16 18  1  0  0  0  0 
 28 41  1  1  0  0  0 
 18 19  1  6  0  0  0 
 29 42  1  6  0  0  0 
 18 20  1  0  0  0  0 
 26 43  1  0  0  0  0 
 20 21  1  0  0  0  0 
 26 44  1  0  0  0  0 
 20 22  1  1  0  0  0 
 32 45  1  6  0  0  0 
 22 23  1  0  0  0  0 
 33 46  1  1  0  0  0 
 13 21  1  0  0  0  0 
 36 47  1  1  0  0  0 
 24 25  1  0  0  0  0 
 37 48  1  6  0  0  0 
 40 49  1  0  0  0  0 
 49  1  1  0  0  0  0 
  2  1  1  1  0  0  0 
 49 50  1  6  0  0  0 
  2  3  1  0  0  0  0 
 49 51  1  0  0  0  0 
  3  4  1  6  0  0  0 
 51 52  1  0  0  0  0 
 24 27  1  0  0  0  0 
 52 53  1  0  0  0  0 
 25 26  1  0  0  0  0 
 53 54  2  0  0  0  0 
 26 29  1  0  0  0  0 
 54 55  1  0  0  0  0 
 28 27  1  0  0  0  0 
 54 56  1  0  0  0  0 
 28 29  1  0  0  0  0 
 40 57  1  6  0  0  0 
  3  5  1  0  0  0  0 
 34 58  1  1  0  0  0 
  5  6  1  1  0  0  0 
 25 59  1  1  0  0  0 
  5  7  1  0  0  0  0 
 60 59  1  0  0  0  0 
  7  8  1  6  0  0  0 
 28 32  1  0  0  0  0 
 29 30  1  0  0  0  0 
 30 31  1  0  0  0  0 
 31 33  1  0  0  0  0 
 32 33  1  0  0  0  0 
  7  9  1  0  0  0  0 
  9 10  1  0  0  0  0 
  9 11  1  1  0  0  0 
 60 61  1  0  0  0  0 
 61 12  1  6  0  0  0 
 61 62  1  0  0  0  0 
 62 63  1  1  0  0  0 
 62 64  1  0  0  0  0 
 64 65  1  6  0  0  0 
 64 66  1  0  0  0  0 
 66 67  1  0  0  0  0 
 66 68  1  1  0  0  0 
 68 69  1  0  0  0  0 
 60 67  1  0  0  0  0 
  2 10  1  0  0  0  0 
 60 70  1  6  0  0  0 
 32 35  1  0  0  0  0 
 13 71  1  6  0  0  0 
 33 37  1  0  0  0  0 
 11 72  1  0  0  0  0 
 36 34  1  0  0  0  0 
 34 35  1  0  0  0  0 
 36 37  1  0  0  0  0 
 13 12  1  0  0  0  0 
 13 14  1  0  0  0  0 
 14 15  1  6  0  0  0 
 14 16  1  0  0  0  0 
 16 17  1  1  0  0  0 
 37 38  1  0  0  0  0 
 73 72  1  1  0  0  0 
 73 74  1  0  0  0  0 
 74 75  1  6  0  0  0 
 74 76  1  0  0  0  0 
 76 77  1  1  0  0  0 
 76 78  1  0  0  0  0 
 78 79  1  0  0  0  0 
 78 80  1  6  0  0  0 
 80 81  1  0  0  0  0 
 73 79  1  0  0  0  0 
M  END
>  <MOLREGNO>
445891

>  <CHEMBLID>
CHEMBL451702

>  <SYNONYMS>
Ginsenoside Rc

>  <MAX_PHASE>
0

>  <MOLWEIGHT>
1079.27

>  <ALOGP>


>  <PSA>


>  <HBA>


>  <HBD>


>  <RO5>


>  <RTB>


>  <RO3>


>  <ACD_MOST_APKA>


>  <ACD_MOST_BPKA>


>  <ACD_LOGP>


>  <ACD_LOGD>


>  <AROMATIC_RINGS>


>  <HEAVY_ATOMS>


>  <QED_WEIGHTED>


>  <HBA_LIPINSKI>


>  <HBD_LIPINSKI>


>  <NUM_LIPINSKI_RO5_VIOLATIONS>


>  <MW_MONOISOTOPIC>
1078.5924

>  <MOLECULAR_SPECIES>


>  <FULL_MOLFORMULA>
C53H90O22

$$$$

  CDK    9/16/09,9:20

 71 77  0  0  0  0  0  0  0  0999 V2000
   13.9386  -22.1314    0.0000 O   0  0  0  0  0  0  0  0  0  0  0  0
   15.2003  -22.8017    0.0000 C   0  0  0  0  0  0  0  0  0  0  0  0
   15.5876  -22.0736    0.0000 O   0  0  0  0  0  0  0  0  0  0  0  0
   15.6375  -23.5010    0.0000 C   0  0  0  0  0  0  0  0  0  0  0  0
   16.4619  -23.4721    0.0000 O   0  0  0  0  0  0  0  0  0  0  0  0
   15.2503  -24.2290    0.0000 C   0  0  0  0  0  0  0  0  0  0  0  0
   15.6874  -24.9283    0.0000 O   0  0  0  0  0  0  0  0  0  0  0  0
   14.4258  -24.2580    0.0000 C   0  0  0  0  0  0  0  0  0  0  0  0
   13.9885  -23.5587    0.0000 O   0  0  0  0  0  0  0  0  0  0  0  0
   14.0386  -24.9861    0.0000 C   0  0  0  0  0  0  0  0  0  0  0  0
   10.2397  -21.3396    0.0000 O   0  0  0  0  0  0  0  0  0  0  0  0
   13.1378  -20.6827    0.0000 O   0  0  0  0  0  0  0  0  0  0  0  0
   12.7132  -21.3894    0.0000 C   0  0  0  0  0  0  0  0  0  0  0  0
   13.1114  -22.1120    0.0000 C   0  0  0  0  0  0  0  0  0  0  0  0
   12.6850  -22.8179    0.0000 C   0  0  0  0  0  0  0  0  0  0  0  0
   13.0831  -23.5405    0.0000 O   0  0  0  0  0  0  0  0  0  0  0  0
   11.8605  -22.8013    0.0000 C   0  0  0  0  0  0  0  0  0  0  0  0
   11.4341  -23.5072    0.0000 O   0  0  0  0  0  0  0  0  0  0  0  0
   11.4623  -22.0787    0.0000 C   0  0  0  0  0  0  0  0  0  0  0  0
   11.8886  -21.3728    0.0000 O   0  0  0  0  0  0  0  0  0  0  0  0
   10.6377  -22.0621    0.0000 C   0  0  0  0  0  0  0  0  0  0  0  0
   17.1108  -12.8695    0.0000 O   0  0  0  0  0  0  0  0  0  0  0  0
   16.1930  -15.7037    0.0000 O   0  0  0  0  0  0  0  0  0  0  0  0
   15.8044  -14.9764    0.0000 C   0  0  0  0  0  0  0  0  0  0  0  0
   14.9798  -14.9491    0.0000 C   0  0  0  0  0  0  0  0  0  0  0  0
   14.5439  -15.6492    0.0000 O   0  0  0  0  0  0  0  0  0  0  0  0
   14.5911  -14.2217    0.0000 C   0  0  0  0  0  0  0  0  0  0  0  0
   13.7666  -14.1944    0.0000 O   0  0  0  0  0  0  0  0  0  0  0  0
   15.0270  -13.5217    0.0000 C   0  0  0  0  0  0  0  0  0  0  0  0
   14.6384  -12.7943    0.0000 O   0  0  0  0  0  0  0  0  0  0  0  0
   15.8516  -13.5490    0.0000 C   0  0  0  0  0  0  0  0  0  0  0  0
   16.2402  -14.2763    0.0000 O   0  0  0  0  0  0  0  0  0  0  0  0
   16.2875  -12.8488    0.0000 C   0  0  0  0  0  0  0  0  0  0  0  0
   11.0030  -18.6128    0.0000 C   0  0  0  0  0  0  0  0  0  0  0  0
   11.0030  -19.4425    0.0000 C   0  0  0  0  0  0  0  0  0  0  0  0
   11.7175  -19.8550    0.0000 C   0  0  0  0  0  0  0  0  0  0  0  0
   11.7175  -18.1957    0.0000 C   0  0  0  0  0  0  0  0  0  0  0  0
   12.4365  -18.6128    0.0000 C   0  0  0  0  0  0  0  0  0  0  0  0
   12.4330  -19.4425    0.0000 C   0  0  0  0  0  0  0  0  0  0  0  0
   13.1457  -19.8579    0.0000 C   0  0  0  0  0  0  0  0  0  0  0  0
   13.8664  -19.4485    0.0000 C   0  0  0  0  0  0  0  0  0  0  0  0
   13.1527  -18.1988    0.0000 C   0  0  0  0  0  0  0  0  0  0  0  0
   13.8674  -18.6202    0.0000 C   0  0  0  0  0  0  0  0  0  0  0  0
   13.8810  -16.9638    0.0000 C   0  0  0  0  0  0  0  0  0  0  0  0
   13.1564  -17.3714    0.0000 C   0  0  0  0  0  0  0  0  0  0  0  0
   14.5957  -17.3853    0.0000 C   0  0  0  0  0  0  0  0  0  0  0  0
   14.5860  -18.2110    0.0000 C   0  0  0  0  0  0  0  0  0  0  0  0
   15.3683  -18.4755    0.0000 C   0  0  0  0  0  0  0  0  0  0  0  0
   15.8617  -17.8130    0.0000 C   0  0  0  0  0  0  0  0  0  0  0  0
   15.3841  -17.1394    0.0000 C   0  0  0  0  0  0  0  0  0  0  0  0
   12.4284  -17.7879    0.0000 C   0  0  0  0  0  0  0  0  0  0  0  0
   12.4284  -20.2628    0.0000 H   0  0  0  0  0  0  0  0  0  0  0  0
   11.2963  -20.5653    0.0000 C   0  0  0  0  0  0  0  0  0  0  0  0
   12.1213  -20.5653    0.0000 C   0  0  0  0  0  0  0  0  0  0  0  0
   13.1480  -19.0207    0.0000 H   0  0  0  0  0  0  0  0  0  0  0  0
   13.8584  -17.7925    0.0000 C   0  0  0  0  0  0  0  0  0  0  0  0
   14.5871  -16.5595    0.0000 H   0  0  0  0  0  0  0  0  0  0  0  0
   14.5780  -19.0345    0.0000 C   0  0  0  0  0  0  0  0  0  0  0  0
   15.7880  -16.4220    0.0000 C   0  0  0  0  0  0  0  0  0  0  0  0
   15.0702  -16.0152    0.0000 C   0  0  0  0  0  0  0  0  0  0  0  0
   16.5057  -16.8288    0.0000 C   0  0  0  0  0  0  0  0  0  0  0  0
   16.5123  -17.6538    0.0000 C   0  0  0  0  0  0  0  0  0  0  0  0
   17.2301  -18.0604    0.0000 C   0  0  0  0  0  0  0  0  0  0  0  0
   17.2368  -18.8854    0.0000 C   0  0  0  0  0  0  0  0  0  0  0  0
   17.9545  -19.2922    0.0000 C   0  0  0  0  0  0  0  0  0  0  0  0
   16.5256  -19.3036    0.0000 C   0  0  0  0  0  0  0  0  0  0  0  0
   16.2050  -17.1370    0.0000 H   0  0  0  0  0  0  0  0  0  0  0  0
   13.8894  -16.1389    0.0000 O   0  0  0  0  0  0  0  0  0  0  0  0
   10.2885  -19.8550    0.0000 O   0  0  0  0  0  0  0  0  0  0  0  0
   14.3758  -22.8306    0.0000 C   0  0  0  0  0  0  0  0  0  0  0  0
   14.7883  -22.1161    0.0000 H   0  0  0  0  0  0  0  0  0  0  0  0
 34 35  1  0  0  0  0 
 13 12  1  1  0  0  0 
 13 14  1  0  0  0  0 
 14  1  1  6  0  0  0 
 14 15  1  0  0  0  0 
 34 37  1  0  0  0  0 
 35 36  1  0  0  0  0 
 36 39  1  0  0  0  0 
 38 37  1  0  0  0  0 
 38 39  1  0  0  0  0 
 15 16  1  1  0  0  0 
 15 17  1  0  0  0  0 
 17 18  1  6  0  0  0 
 17 19  1  0  0  0  0 
 38 42  1  0  0  0  0 
 39 40  1  0  0  0  0 
 40 41  1  0  0  0  0 
 41 43  1  0  0  0  0 
 42 43  1  0  0  0  0 
 19 20  1  0  0  0  0 
 19 21  1  1  0  0  0 
 21 11  1  0  0  0  0 
 13 20  1  0  0  0  0 
 42 45  1  0  0  0  0 
 43 47  1  0  0  0  0 
 46 44  1  0  0  0  0 
 44 45  1  0  0  0  0 
 46 47  1  0  0  0  0 
 70  9  1  0  0  0  0 
 70  1  1  0  0  0  0 
 70  2  1  0  0  0  0 
  2  3  1  6  0  0  0 
 47 48  1  0  0  0  0 
 48 49  1  0  0  0  0 
 49 50  1  0  0  0  0 
 50 46  1  0  0  0  0 
  2  4  1  0  0  0  0 
 38 51  1  1  0  0  0 
  4  5  1  6  0  0  0 
 39 52  1  6  0  0  0 
  4  6  1  0  0  0  0 
 36 53  1  0  0  0  0 
  6  7  1  1  0  0  0 
 36 54  1  0  0  0  0 
  6  8  1  0  0  0  0 
 42 55  1  6  0  0  0 
  8  9  1  0  0  0  0 
 43 56  1  1  0  0  0 
  8 10  1  6  0  0  0 
 46 57  1  1  0  0  0 
 24 23  1  1  0  0  0 
 47 58  1  6  0  0  0 
 24 25  1  0  0  0  0 
 50 59  1  0  0  0  0 
 59 23  1  0  0  0  0 
 25 26  1  6  0  0  0 
 59 60  1  6  0  0  0 
 25 27  1  0  0  0  0 
 59 61  1  0  0  0  0 
 27 28  1  1  0  0  0 
 61 62  1  0  0  0  0 
 27 29  1  0  0  0  0 
 62 63  1  0  0  0  0 
 29 30  1  6  0  0  0 
 63 64  2  0  0  0  0 
 29 31  1  0  0  0  0 
 64 65  1  0  0  0  0 
 31 32  1  0  0  0  0 
 64 66  1  0  0  0  0 
 31 33  1  1  0  0  0 
 50 67  1  6  0  0  0 
 33 22  1  0  0  0  0 
 44 68  1  1  0  0  0 
 24 32  1  0  0  0  0 
 35 69  1  1  0  0  0 
 40 12  1  6  0  0  0 
 70 71  1  6  0  0  0 
M  END
>  <MOLREGNO>
445893

>  <CHEMBLID>
CHEMBL510095

>  <SYNONYMS>
Ginsenoside Re

>  <MAX_PHASE>
0

>  <MOLWEIGHT>
947.15

>  <ALOGP>
.27

>  <PSA>
298.14

>  <HBA>
18

>  <HBD>
12

>  <RO5>
3

>  <RTB>
12

>  <RO3>
N

>  <ACD_MOST_APKA>
12.85

>  <ACD_MOST_BPKA>


>  <ACD_LOGP>
1.89

>  <ACD_LOGD>
1.89

>  <AROMATIC_RINGS>
0

>  <HEAVY_ATOMS>
66

>  <QED_WEIGHTED>
.09

>  <HBA_LIPINSKI>
18

>  <HBD_LIPINSKI>
12

>  <NUM_LIPINSKI_RO5_VIOLATIONS>
2

>  <MW_MONOISOTOPIC>
946.5501

>  <MOLECULAR_SPECIES>
NEUTRAL

>  <FULL_MOLFORMULA>
C48H82O18

$$$$

  SciTegic01161211232D

 73 79  0  0  0  0            999 V2000
   18.4452    3.1348    0.0000 O   0  0
   16.2475    1.1307    0.0000 O   0  0
   16.2650    1.9555    0.0000 C   0  0  2  0  0  0
   16.9900    2.3497    0.0000 O   0  0
   17.0094    3.1709    0.0000 C   0  0  1  0  0  0
   16.3057    3.6022    0.0000 C   0  0  2  0  0  0
   15.5809    3.2062    0.0000 C   0  0  1  0  0  0
   15.5597    2.3788    0.0000 C   0  0  1  0  0  0
   14.8366    1.9816    0.0000 O   0  0
   14.8768    3.6361    0.0000 O   0  0
   16.3263    4.4314    0.0000 O   0  0
   17.7339    3.5654    0.0000 C   0  0
   12.6750   -1.3792    0.0000 C   0  0
   12.6750   -2.2042    0.0000 C   0  0  1  0  0  0
   13.3870   -2.6125    0.0000 C   0  0
   13.3870   -0.9625    0.0000 C   0  0
   14.0990   -1.3792    0.0000 C   0  0  1  0  0  0
   14.0955   -2.2042    0.0000 C   0  0  1  0  0  0
   14.8043   -2.6174    0.0000 C   0  0
   15.5211   -2.2102    0.0000 C   0  0
   14.8113   -0.9674    0.0000 C   0  0  2  0  0  0
   15.5247   -1.3901    0.0000 C   0  0  1  0  0  0
   15.5417    0.2652    0.0000 C   0  0  2  0  0  0
   14.8167   -0.1406    0.0000 C   0  0
   12.9667   -3.3250    0.0000 C   0  0
   13.7917   -3.3250    0.0000 C   0  0
   11.9611   -2.6177    0.0000 O   0  0
   14.0917   -0.5542    0.0000 C   0  0
   15.5167   -0.5625    0.0000 C   0  0
   16.2333   -1.8125    0.0000 C   0  0
   16.2586   -0.1565    0.0000 C   0  0  1  0  0  0
   16.2415   -0.9876    0.0000 C   0  0  1  0  0  0
   17.0266   -1.2608    0.0000 C   0  0
   17.5291   -0.5985    0.0000 C   0  0
   17.0543    0.0839    0.0000 C   0  0  2  0  0  0
   17.0500    0.9125    0.0000 C   0  0  2  0  0  0
   17.7623    1.3287    0.0000 C   0  0
   18.4789    0.9200    0.0000 C   0  0
   19.1912    1.3362    0.0000 C   0  0
   19.9078    0.9275    0.0000 C   0  0
   20.6201    1.3437    0.0000 C   0  0
   19.9122    0.1025    0.0000 C   0  0
   15.5505    1.0902    0.0000 O   0  0
   17.0520    1.8062    0.0000 C   0  0
   15.5458    1.5500    0.0000 H   0  0
   11.2461   -2.2062    0.0000 C   0  0  2  0  0  0
   11.2471   -1.3826    0.0000 O   0  0
   10.5361   -0.9712    0.0000 C   0  0  1  0  0  0
    9.8198   -1.3812    0.0000 C   0  0  2  0  0  0
    9.8190   -2.2072    0.0000 C   0  0  1  0  0  0
   10.5346   -2.6231    0.0000 C   0  0  1  0  0  0
   10.5360   -3.4481    0.0000 O   0  0
    9.1038   -2.6183    0.0000 O   0  0
    9.1063   -0.9670    0.0000 O   0  0
   10.5380   -0.1462    0.0000 C   0  0
   11.2535    0.2647    0.0000 O   0  0
    9.8222   -3.8618    0.0000 C   0  0  2  0  0  0
    9.1112   -3.4490    0.0000 O   0  0
    8.3996   -3.8592    0.0000 C   0  0  1  0  0  0
    8.3968   -4.6845    0.0000 C   0  0  2  0  0  0
    9.1118   -5.0980    0.0000 C   0  0  1  0  0  0
    9.8297   -4.6861    0.0000 C   0  0  1  0  0  0
   10.5454   -5.0964    0.0000 O   0  0
    9.1104   -5.9230    0.0000 O   0  0
    7.6814   -5.0955    0.0000 O   0  0
    7.6860   -3.4452    0.0000 C   0  0
    7.6877   -2.6202    0.0000 O   0  0
   11.2417   -3.0292    0.0000 H   0  0
   10.5333   -4.2708    0.0000 H   0  0
   17.7667    0.2542    0.0000 H   0  0
   16.2542    0.6708    0.0000 H   0  0
   14.8042   -1.7917    0.0000 H   0  0
   14.0875   -3.0250    0.0000 H   0  0
 35 31  1  0
  3  4  1  0
 35 36  1  0
  8  9  1  6
 36 37  1  0
 37 38  1  0
  7 10  1  1
 38 39  1  0
 17 21  1  0
 39 40  2  0
 18 19  1  0
 40 41  1  0
 19 20  1  0
 40 42  1  0
 20 22  1  0
 23 43  1  1
 21 22  1  0
 36 44  1  6
 36  2  1  0
  3  2  1  0
  3 45  1  6
  6 11  1  6
 27 46  1  0
 46 47  1  0
  3  8  1  0
  5 12  1  1
 21 24  1  0
 22 32  1  0
 31 23  1  0
 46 51  1  0
 47 48  1  0
 48 49  1  0
 49 50  1  0
 50 51  1  0
 23 24  1  0
 51 52  1  6
 12  1  1  0
 50 53  1  1
 15 25  1  0
 49 54  1  6
 13 14  1  0
 48 55  1  1
 15 26  1  0
 55 56  1  0
  4  5  1  0
 52 57  1  0
 57 58  1  0
 14 27  1  1
  5  6  1  0
 17 28  1  1
  6  7  1  0
 22 29  1  1
 57 62  1  0
 58 59  1  0
 59 60  1  0
 60 61  1  0
 61 62  1  0
  7  8  1  0
 62 63  1  6
 32 30  1  6
 61 64  1  1
 31 32  1  0
 60 65  1  6
 13 16  1  0
 59 66  1  1
 14 15  1  0
 66 67  1  0
 15 18  1  0
 46 68  1  6
 17 16  1  0
 57 69  1  6
 17 18  1  0
 35 70  1  6
 32 33  1  0
 31 71  1  1
 33 34  1  0
 21 72  1  6
 34 35  1  0
 18 73  1  6
M  END
>  <MOLREGNO>
445892

>  <CHEMBLID>
CHEMBL473659

>  <SYNONYMS>
Ginsenoside Rd

>  <MAX_PHASE>
0

>  <MOLWEIGHT>
947.15

>  <ALOGP>
.55

>  <PSA>
298.14

>  <HBA>
18

>  <HBD>
12

>  <RO5>
3

>  <RTB>
13

>  <RO3>
N

>  <ACD_MOST_APKA>
12.85

>  <ACD_MOST_BPKA>


>  <ACD_LOGP>
3.38

>  <ACD_LOGD>
3.38

>  <AROMATIC_RINGS>
0

>  <HEAVY_ATOMS>
66

>  <QED_WEIGHTED>
.09

>  <HBA_LIPINSKI>
18

>  <HBD_LIPINSKI>
12

>  <NUM_LIPINSKI_RO5_VIOLATIONS>
2

>  <MW_MONOISOTOPIC>
946.5501

>  <MOLECULAR_SPECIES>
NEUTRAL

>  <FULL_MOLFORMULA>
C48H82O18

$$$$

  CDK    9/16/09,9:20

 49 53  0  0  0  0  0  0  0  0999 V2000
   11.4875    0.5167    0.0000 C   0  0  0  0  0  0  0  0  0  0  0  0
   12.3125    0.5167    0.0000 C   0  0  0  0  0  0  0  0  0  0  0  0
    6.9083   -1.7500    0.0000 C   0  0  0  0  0  0  0  0  0  0  0  0
    6.9083   -2.5750    0.0000 C   0  0  0  0  0  0  0  0  0  0  0  0
    7.6204   -2.9833    0.0000 C   0  0  0  0  0  0  0  0  0  0  0  0
    7.6204   -1.3333    0.0000 C   0  0  0  0  0  0  0  0  0  0  0  0
    8.3324   -1.7500    0.0000 C   0  0  0  0  0  0  0  0  0  0  0  0
    8.3289   -2.5750    0.0000 C   0  0  0  0  0  0  0  0  0  0  0  0
    9.0376   -2.9882    0.0000 C   0  0  0  0  0  0  0  0  0  0  0  0
    9.7544   -2.5810    0.0000 C   0  0  0  0  0  0  0  0  0  0  0  0
    9.0446   -1.3382    0.0000 C   0  0  0  0  0  0  0  0  0  0  0  0
    9.7580   -1.7609    0.0000 C   0  0  0  0  0  0  0  0  0  0  0  0
    9.7750   -0.1056    0.0000 C   0  0  0  0  0  0  0  0  0  0  0  0
    9.0500   -0.5114    0.0000 C   0  0  0  0  0  0  0  0  0  0  0  0
   10.4883   -0.5283    0.0000 C   0  0  0  0  0  0  0  0  0  0  0  0
   10.4749   -1.3548    0.0000 C   0  0  0  0  0  0  0  0  0  0  0  0
   11.2568   -1.6230    0.0000 C   0  0  0  0  0  0  0  0  0  0  0  0
   11.7536   -0.9622    0.0000 C   0  0  0  0  0  0  0  0  0  0  0  0
   11.2786   -0.2857    0.0000 C   0  0  0  0  0  0  0  0  0  0  0  0
   10.4833    0.3000    0.0000 H   0  0  0  0  0  0  0  0  0  0  0  0
    9.7500   -0.9333    0.0000 C   0  0  0  0  0  0  0  0  0  0  0  0
    8.3250   -0.9250    0.0000 C   0  0  0  0  0  0  0  0  0  0  0  0
    6.1945   -2.9885    0.0000 O   0  0  0  0  0  0  0  0  0  0  0  0
    9.0375   -2.1625    0.0000 H   0  0  0  0  0  0  0  0  0  0  0  0
   10.4667   -2.1792    0.0000 C   0  0  0  0  0  0  0  0  0  0  0  0
    9.7852    0.7193    0.0000 O   0  0  0  0  0  0  0  0  0  0  0  0
   12.0708   -0.0667    0.0000 H   0  0  0  0  0  0  0  0  0  0  0  0
    8.3208   -3.3958    0.0000 H   0  0  0  0  0  0  0  0  0  0  0  0
    7.0292   -3.5667    0.0000 C   0  0  0  0  0  0  0  0  0  0  0  0
    7.8292   -3.7792    0.0000 C   0  0  0  0  0  0  0  0  0  0  0  0
    9.0330   -3.8132    0.0000 O   0  0  0  0  0  0  0  0  0  0  0  0
    9.7451   -4.2297    0.0000 C   0  0  0  0  0  0  0  0  0  0  0  0
    9.7393   -5.0551    0.0000 O   0  0  0  0  0  0  0  0  0  0  0  0
   10.4473   -5.4715    0.0000 C   0  0  0  0  0  0  0  0  0  0  0  0
   11.1665   -5.0665    0.0000 C   0  0  0  0  0  0  0  0  0  0  0  0
   11.1731   -4.2406    0.0000 C   0  0  0  0  0  0  0  0  0  0  0  0
   10.4606   -3.8196    0.0000 C   0  0  0  0  0  0  0  0  0  0  0  0
   11.8913   -3.8346    0.0000 O   0  0  0  0  0  0  0  0  0  0  0  0
   10.4395   -6.2964    0.0000 C   0  0  0  0  0  0  0  0  0  0  0  0
    9.7212   -6.7022    0.0000 O   0  0  0  0  0  0  0  0  0  0  0  0
    9.7375   -3.4042    0.0000 H   0  0  0  0  0  0  0  0  0  0  0  0
   10.4660   -2.9946    0.0000 O   0  0  0  0  0  0  0  0  0  0  0  0
   11.8771   -5.4857    0.0000 O   0  0  0  0  0  0  0  0  0  0  0  0
   10.9830    1.1694    0.0000 C   0  0  0  0  0  0  0  0  0  0  0  0
   12.7250    1.2311    0.0000 C   0  0  0  0  0  0  0  0  0  0  0  0
   13.5500    1.2311    0.0000 C   0  0  0  0  0  0  0  0  0  0  0  0
   13.9625    0.5167    0.0000 C   0  0  0  0  0  0  0  0  0  0  0  0
   14.7875    0.5167    0.0000 C   0  0  0  0  0  0  0  0  0  0  0  0
   13.5500   -0.1978    0.0000 C   0  0  0  0  0  0  0  0  0  0  0  0
  4  5  1  0  0  0  0 
 11 24  1  6  0  0  0 
  5  8  1  0  0  0  0 
 16 25  1  6  0  0  0 
  7  6  1  0  0  0  0 
 13 26  1  1  0  0  0 
 19  1  1  0  0  0  0 
  7  8  1  0  0  0  0 
 19 27  1  6  0  0  0 
 11 14  1  0  0  0  0 
  8 28  1  6  0  0  0 
 12 16  1  0  0  0  0 
  5 29  1  0  0  0  0 
 15 13  1  0  0  0  0 
  5 30  1  0  0  0  0 
 13 14  1  0  0  0  0 
  9 31  1  6  0  0  0 
 15 16  1  0  0  0  0 
 31 32  1  0  0  0  0 
 32 33  1  0  0  0  0 
  1  2  2  0  0  0  0 
  3  4  1  0  0  0  0 
  3  6  1  0  0  0  0 
  7 11  1  0  0  0  0 
 32 37  1  0  0  0  0 
 33 34  1  0  0  0  0 
 34 35  1  0  0  0  0 
 35 36  1  0  0  0  0 
 36 37  1  0  0  0  0 
 16 17  1  0  0  0  0 
 36 38  1  1  0  0  0 
 17 18  1  0  0  0  0 
 34 39  1  1  0  0  0 
 18 19  1  0  0  0  0 
 39 40  1  0  0  0  0 
 19 15  1  0  0  0  0 
 32 41  1  6  0  0  0 
  8  9  1  0  0  0  0 
 37 42  1  6  0  0  0 
 15 20  1  1  0  0  0 
 35 43  1  6  0  0  0 
  9 10  1  0  0  0  0 
  1 44  1  0  0  0  0 
 12 21  1  1  0  0  0 
  2 45  1  0  0  0  0 
 10 12  1  0  0  0  0 
 45 46  1  0  0  0  0 
  7 22  1  1  0  0  0 
 46 47  2  0  0  0  0 
 11 12  1  0  0  0  0 
 47 48  1  0  0  0  0 
  4 23  1  1  0  0  0 
 47 49  1  0  0  0  0 
M  END
>  <MOLREGNO>
506145

>  <CHEMBLID>
CHEMBL504029

>  <SYNONYMS>
Ginsenoside Rh4

>  <MAX_PHASE>
0

>  <MOLWEIGHT>
620.86

>  <ALOGP>
3.84

>  <PSA>
139.84

>  <HBA>
8

>  <HBD>
6

>  <RO5>
2

>  <RTB>
6

>  <RO3>
N

>  <ACD_MOST_APKA>
12.91

>  <ACD_MOST_BPKA>


>  <ACD_LOGP>
5.05

>  <ACD_LOGD>
5.05

>  <AROMATIC_RINGS>
0

>  <HEAVY_ATOMS>
44

>  <QED_WEIGHTED>
.2

>  <HBA_LIPINSKI>
8

>  <HBD_LIPINSKI>
6

>  <NUM_LIPINSKI_RO5_VIOLATIONS>
1

>  <MW_MONOISOTOPIC>
620.4288

>  <MOLECULAR_SPECIES>
NEUTRAL

>  <FULL_MOLFORMULA>
C36H60O8

$$$$

  CDK    6/4/10,11:41

 50 54  0  0  0  0  0  0  0  0999 V2000
   -4.2875  -21.9375    0.0000 C   0  0  0  0  0  0  0  0  0  0  0  0
   -4.2875  -22.7625    0.0000 C   0  0  0  0  0  0  0  0  0  0  0  0
   -3.5755  -23.1708    0.0000 C   0  0  0  0  0  0  0  0  0  0  0  0
   -3.5755  -21.5208    0.0000 C   0  0  0  0  0  0  0  0  0  0  0  0
   -2.8635  -21.9375    0.0000 C   0  0  0  0  0  0  0  0  0  0  0  0
   -2.8624  -22.7625    0.0000 C   0  0  0  0  0  0  0  0  0  0  0  0
   -2.1514  -23.1718    0.0000 C   0  0  0  0  0  0  0  0  0  0  0  0
   -1.4368  -22.7607    0.0000 C   0  0  0  0  0  0  0  0  0  0  0  0
   -2.1535  -21.5218    0.0000 C   0  0  0  0  0  0  0  0  0  0  0  0
   -1.4382  -21.9403    0.0000 C   0  0  0  0  0  0  0  0  0  0  0  0
   -1.4303  -20.2859    0.0000 C   0  0  0  0  0  0  0  0  0  0  0  0
   -2.1526  -20.6954    0.0000 C   0  0  0  0  0  0  0  0  0  0  0  0
   -0.7151  -20.7044    0.0000 C   0  0  0  0  0  0  0  0  0  0  0  0
   -0.7232  -21.5293    0.0000 C   0  0  0  0  0  0  0  0  0  0  0  0
    0.0588  -21.7919    0.0000 C   0  0  0  0  0  0  0  0  0  0  0  0
    0.5503  -21.1293    0.0000 C   0  0  0  0  0  0  0  0  0  0  0  0
    0.0728  -20.4568    0.0000 C   0  0  0  0  0  0  0  0  0  0  0  0
    0.0790  -19.6318    0.0000 C   0  0  0  0  0  0  0  0  0  0  0  0
    0.7965  -19.2246    0.0000 C   0  0  0  0  0  0  0  0  0  0  0  0
    1.5079  -19.6424    0.0000 C   0  0  0  0  0  0  0  0  0  0  0  0
    2.2254  -19.2353    0.0000 C   0  0  0  0  0  0  0  0  0  0  0  0
    2.9368  -19.6531    0.0000 C   0  0  0  0  0  0  0  0  0  0  0  0
    3.6543  -19.2459    0.0000 C   0  0  0  0  0  0  0  0  0  0  0  0
    2.9306  -20.4780    0.0000 C   0  0  0  0  0  0  0  0  0  0  0  0
   -5.0014  -23.1760    0.0000 O   0  0  0  0  0  0  0  0  0  0  0  0
   -2.1583  -23.9958    0.0000 O   0  0  0  0  0  0  0  0  0  0  0  0
   -2.8708  -21.1125    0.0000 C   0  0  0  0  0  0  0  0  0  0  0  0
   -1.4458  -21.1125    0.0000 C   0  0  0  0  0  0  0  0  0  0  0  0
   -0.7292  -22.3542    0.0000 C   0  0  0  0  0  0  0  0  0  0  0  0
   -0.6324  -19.2140    0.0000 O   0  0  0  0  0  0  0  0  0  0  0  0
    0.0708  -18.8042    0.0000 C   0  0  0  0  0  0  0  0  0  0  0  0
   -0.6263  -18.3890    0.0000 C   0  0  0  0  0  0  0  0  0  0  0  0
    0.0972  -17.9844    0.0000 O   0  0  0  0  0  0  0  0  0  0  0  0
    0.1052  -17.1631    0.0000 C   0  0  0  0  0  0  0  0  0  0  0  0
   -0.6043  -16.7414    0.0000 C   0  0  0  0  0  0  0  0  0  0  0  0
   -1.3236  -17.1474    0.0000 C   0  0  0  0  0  0  0  0  0  0  0  0
   -1.3334  -17.9749    0.0000 C   0  0  0  0  0  0  0  0  0  0  0  0
   -2.0516  -18.3810    0.0000 O   0  0  0  0  0  0  0  0  0  0  0  0
   -2.0336  -16.7271    0.0000 O   0  0  0  0  0  0  0  0  0  0  0  0
   -0.5950  -15.9165    0.0000 O   0  0  0  0  0  0  0  0  0  0  0  0
    0.8243  -16.7586    0.0000 C   0  0  0  0  0  0  0  0  0  0  0  0
    1.5341  -17.1791    0.0000 O   0  0  0  0  0  0  0  0  0  0  0  0
   -1.4247  -19.4609    0.0000 O   0  0  0  0  0  0  0  0  0  0  0  0
   -2.8667  -23.5833    0.0000 H   0  0  0  0  0  0  0  0  0  0  0  0
   -2.1583  -22.3458    0.0000 H   0  0  0  0  0  0  0  0  0  0  0  0
    0.8958  -20.4542    0.0000 H   0  0  0  0  0  0  0  0  0  0  0  0
   -0.7208  -19.8792    0.0000 H   0  0  0  0  0  0  0  0  0  0  0  0
   -3.1708  -23.8833    0.0000 C   0  0  0  0  0  0  0  0  0  0  0  0
   -3.9958  -23.8833    0.0000 C   0  0  0  0  0  0  0  0  0  0  0  0
   -1.3042  -18.9500    0.0000 H   0  0  0  0  0  0  0  0  0  0  0  0
 22 24  1  0  0  0  0 
  9 12  1  0  0  0  0 
  2 25  1  1  0  0  0 
 10 14  1  0  0  0  0 
  7 26  1  6  0  0  0 
 13 11  1  0  0  0  0 
  5 27  1  1  0  0  0 
 11 12  1  0  0  0  0 
 10 28  1  1  0  0  0 
 13 14  1  0  0  0  0 
 14 29  1  6  0  0  0 
  1  2  1  0  0  0  0 
 18 30  1  1  0  0  0 
  1  4  1  0  0  0  0 
 18 31  1  0  0  0  0 
  2  3  1  0  0  0  0 
 30 32  1  0  0  0  0 
 32 33  1  0  0  0  0 
  5  9  1  0  0  0  0 
  6  7  1  0  0  0  0 
 14 15  1  0  0  0  0 
 15 16  1  0  0  0  0 
 16 17  1  0  0  0  0 
 32 37  1  0  0  0  0 
 33 34  1  0  0  0  0 
 34 35  1  0  0  0  0 
 35 36  1  0  0  0  0 
 36 37  1  0  0  0  0 
 17 13  1  0  0  0  0 
 37 38  1  6  0  0  0 
  7  8  1  0  0  0  0 
 36 39  1  1  0  0  0 
 17 18  1  0  0  0  0 
 35 40  1  6  0  0  0 
  8 10  1  0  0  0  0 
 34 41  1  1  0  0  0 
 18 19  1  0  0  0  0 
 41 42  1  0  0  0  0 
  9 10  1  0  0  0  0 
 11 43  1  1  0  0  0 
 19 20  1  0  0  0  0 
  6 44  1  6  0  0  0 
  3  6  1  0  0  0  0 
  9 45  1  6  0  0  0 
 20 21  1  0  0  0  0 
 17 46  1  6  0  0  0 
  5  4  1  0  0  0  0 
 13 47  1  1  0  0  0 
 21 22  2  0  0  0  0 
  3 48  1  0  0  0  0 
  5  6  1  0  0  0  0 
  3 49  1  0  0  0  0 
 22 23  1  0  0  0  0 
 32 50  1  6  0  0  0 
M  END
>  <MOLREGNO>
590163

>  <CHEMBLID>
CHEMBL584011

>  <SYNONYMS>
Ginsenoside F1

>  <MAX_PHASE>
0

>  <MOLWEIGHT>
638.87

>  <ALOGP>
2.87

>  <PSA>
160.07

>  <HBA>
9

>  <HBD>
7

>  <RO5>
2

>  <RTB>
7

>  <RO3>
N

>  <ACD_MOST_APKA>
12.94

>  <ACD_MOST_BPKA>


>  <ACD_LOGP>
3.64

>  <ACD_LOGD>
3.64

>  <AROMATIC_RINGS>
0

>  <HEAVY_ATOMS>
45

>  <QED_WEIGHTED>
.21

>  <HBA_LIPINSKI>
9

>  <HBD_LIPINSKI>
7

>  <NUM_LIPINSKI_RO5_VIOLATIONS>
1

>  <MW_MONOISOTOPIC>
638.4394

>  <MOLECULAR_SPECIES>
NEUTRAL

>  <FULL_MOLFORMULA>
C36H62O9

$$$$

  SciTegic01161211252D

 61 66  0  0  0  0            999 V2000
    3.4160   -6.2694    0.0000 O   0  0
    1.2184   -8.2734    0.0000 O   0  0
    1.2358   -7.4486    0.0000 C   0  0  2  0  0  0
    1.9609   -7.0545    0.0000 O   0  0
    1.9802   -6.2333    0.0000 C   0  0  1  0  0  0
    1.2765   -5.8020    0.0000 C   0  0  2  0  0  0
    0.5517   -6.1980    0.0000 C   0  0  1  0  0  0
    0.5305   -7.0253    0.0000 C   0  0  1  0  0  0
   -0.1925   -7.4225    0.0000 O   0  0
   -0.1524   -5.7680    0.0000 O   0  0
    1.2971   -4.9772    0.0000 O   0  0
    2.7047   -5.8388    0.0000 C   0  0
   -2.3542  -10.7833    0.0000 C   0  0
   -2.3542  -11.6083    0.0000 C   0  0  1  0  0  0
   -1.6421  -12.0167    0.0000 C   0  0
   -1.6421  -10.3667    0.0000 C   0  0
   -0.9301  -10.7833    0.0000 C   0  0  1  0  0  0
   -0.9336  -11.6083    0.0000 C   0  0  1  0  0  0
   -0.2249  -12.0216    0.0000 C   0  0
    0.4919  -11.6144    0.0000 C   0  0
   -0.2179  -10.3716    0.0000 C   0  0  2  0  0  0
    0.4955  -10.7942    0.0000 C   0  0  1  0  0  0
    0.5125   -9.1389    0.0000 C   0  0  2  0  0  0
   -0.2125   -9.5447    0.0000 C   0  0
   -2.0625  -12.7292    0.0000 C   0  0
   -1.2375  -12.7292    0.0000 C   0  0
   -3.0680  -12.0219    0.0000 O   0  0
   -0.9375   -9.9583    0.0000 C   0  0
    0.4875   -9.9667    0.0000 C   0  0
    1.2042  -11.2167    0.0000 C   0  0
    1.2294   -9.5607    0.0000 C   0  0  1  0  0  0
    1.2123  -10.3918    0.0000 C   0  0  1  0  0  0
    1.9974  -10.6650    0.0000 C   0  0
    2.4999  -10.0026    0.0000 C   0  0
    2.0252   -9.3202    0.0000 C   0  0  2  0  0  0
    2.0208   -8.4917    0.0000 C   0  0  2  0  0  0
    2.7331   -8.0754    0.0000 C   0  0
    3.4498   -8.4842    0.0000 C   0  0
    4.1621   -8.0679    0.0000 C   0  0
    4.8787   -8.4767    0.0000 C   0  0
    5.5910   -8.0604    0.0000 C   0  0
    4.8830   -9.3017    0.0000 C   0  0
    0.5214   -8.3140    0.0000 O   0  0
    2.0230   -7.6604    0.0000 C   0  0
    0.5167   -7.8542    0.0000 H   0  0
   -3.7831  -11.6104    0.0000 C   0  0  2  0  0  0
   -3.7821  -10.7867    0.0000 O   0  0
   -4.4930  -10.3753    0.0000 C   0  0  1  0  0  0
   -5.2093  -10.7854    0.0000 C   0  0  2  0  0  0
   -5.2101  -11.6113    0.0000 C   0  0  1  0  0  0
   -4.4946  -12.0273    0.0000 C   0  0  1  0  0  0
   -4.4932  -12.8523    0.0000 O   0  0
   -5.9254  -12.0224    0.0000 O   0  0
   -5.9229  -10.3712    0.0000 O   0  0
   -4.4911   -9.5504    0.0000 C   0  0
   -3.7757   -9.1395    0.0000 O   0  0
   -3.7875  -12.4333    0.0000 H   0  0
   -0.9417  -12.4292    0.0000 H   0  0
   -0.2250  -11.1958    0.0000 H   0  0
    1.2250   -8.7333    0.0000 H   0  0
    2.7688   -9.0875    0.0000 H   0  0
 22 29  1  1
  7  8  1  0
 32 30  1  6
 31 32  1  0
 13 16  1  0
 14 15  1  0
 15 18  1  0
 17 16  1  0
 17 18  1  0
 32 33  1  0
 33 34  1  0
 34 35  1  0
 35 31  1  0
  3  4  1  0
 35 36  1  0
  8  9  1  6
 36 37  1  0
 37 38  1  0
  7 10  1  1
 38 39  1  0
 17 21  1  0
 39 40  2  0
 18 19  1  0
 40 41  1  0
 19 20  1  0
 40 42  1  0
 20 22  1  0
 23 43  1  1
 21 22  1  0
 36 44  1  6
 36  2  1  0
  3  2  1  0
  3 45  1  6
  6 11  1  6
 27 46  1  0
 46 47  1  0
  3  8  1  0
  5 12  1  1
 21 24  1  0
 22 32  1  0
 31 23  1  0
 46 51  1  0
 47 48  1  0
 48 49  1  0
 49 50  1  0
 50 51  1  0
 23 24  1  0
 51 52  1  6
 12  1  1  0
 50 53  1  1
 15 25  1  0
 49 54  1  6
 13 14  1  0
 48 55  1  1
 15 26  1  0
 55 56  1  0
  4  5  1  0
 46 57  1  6
 14 27  1  1
 18 58  1  6
  5  6  1  0
 21 59  1  6
 17 28  1  1
 31 60  1  1
  6  7  1  0
 35 61  1  6
M  END
>  <MOLREGNO>
626694

>  <CHEMBLID>
CHEMBL1095007

>  <SYNONYMS>
Ginsenoside F2

>  <MAX_PHASE>
0

>  <MOLWEIGHT>
785.01

>  <ALOGP>
2.3

>  <PSA>
218.98

>  <HBA>
13

>  <HBD>
9

>  <RO5>
3

>  <RTB>
10

>  <RO3>
N

>  <ACD_MOST_APKA>
12.91

>  <ACD_MOST_BPKA>


>  <ACD_LOGP>
3.24

>  <ACD_LOGD>
3.24

>  <AROMATIC_RINGS>
0

>  <HEAVY_ATOMS>
55

>  <QED_WEIGHTED>
.12

>  <HBA_LIPINSKI>
13

>  <HBD_LIPINSKI>
9

>  <NUM_LIPINSKI_RO5_VIOLATIONS>
2

>  <MW_MONOISOTOPIC>
784.4973

>  <MOLECULAR_SPECIES>
NEUTRAL

>  <FULL_MOLFORMULA>
C42H72O13

$$$$

  SciTegic01161211212D

 59 64  0  0  0  0            999 V2000
    8.3535   -5.9402    0.0000 O   0  0
    9.0701   -5.5289    0.0000 C   0  0  1  0  0  0
    9.0715   -4.7039    0.0000 C   0  0  2  0  0  0
    8.3564   -4.2902    0.0000 O   0  0
    9.7881   -4.2927    0.0000 C   0  0  1  0  0  0
    9.7896   -3.4677    0.0000 O   0  0
   10.5033   -4.7065    0.0000 C   0  0  1  0  0  0
   11.2157   -4.2952    0.0000 O   0  0
   10.5018   -5.5315    0.0000 C   0  0
    9.7852   -5.9427    0.0000 O   0  0
    6.1559   -7.9443    0.0000 O   0  0
    6.1733   -7.1195    0.0000 C   0  0  2  0  0  0
    6.8984   -6.7253    0.0000 O   0  0
    6.9177   -5.9041    0.0000 C   0  0  1  0  0  0
    6.2140   -5.4728    0.0000 C   0  0  2  0  0  0
    5.4892   -5.8688    0.0000 C   0  0  1  0  0  0
    5.4680   -6.6962    0.0000 C   0  0  1  0  0  0
    4.7450   -7.0934    0.0000 O   0  0
    4.7851   -5.4389    0.0000 O   0  0
    6.2346   -4.6480    0.0000 O   0  0
    7.6422   -5.5096    0.0000 C   0  0
    2.5833  -10.4542    0.0000 C   0  0
    2.5833  -11.2792    0.0000 C   0  0  1  0  0  0
    3.2954  -11.6875    0.0000 C   0  0
    3.2954  -10.0375    0.0000 C   0  0
    4.0074  -10.4542    0.0000 C   0  0  1  0  0  0
    4.0039  -11.2792    0.0000 C   0  0  1  0  0  0
    4.7126  -11.6924    0.0000 C   0  0  2  0  0  0
    5.4294  -11.2852    0.0000 C   0  0
    4.7196  -10.0424    0.0000 C   0  0  2  0  0  0
    5.4330  -10.4651    0.0000 C   0  0  1  0  0  0
    5.4500   -8.8098    0.0000 C   0  0  2  0  0  0
    4.7250   -9.2156    0.0000 C   0  0
    2.8750  -12.4000    0.0000 C   0  0
    3.7000  -12.4000    0.0000 C   0  0
    1.8695  -11.6927    0.0000 O   0  0
    4.0000   -9.6292    0.0000 C   0  0
    5.4250   -9.6375    0.0000 C   0  0
    6.1417  -10.8875    0.0000 C   0  0
    4.7080  -12.5174    0.0000 O   0  0
    6.1669   -9.2315    0.0000 C   0  0  1  0  0  0
    6.1498  -10.0626    0.0000 C   0  0  1  0  0  0
    6.9349  -10.3358    0.0000 C   0  0
    7.4374   -9.6735    0.0000 C   0  0
    6.9627   -8.9911    0.0000 C   0  0  2  0  0  0
    6.9583   -8.1625    0.0000 C   0  0  2  0  0  0
    7.6706   -7.7463    0.0000 C   0  0
    8.3873   -8.1550    0.0000 C   0  0
    9.0996   -7.7388    0.0000 C   0  0
    9.8162   -8.1475    0.0000 C   0  0
   10.5285   -7.7313    0.0000 C   0  0
    9.8205   -8.9725    0.0000 C   0  0
    5.4589   -7.9848    0.0000 O   0  0
    6.9917   -7.2687    0.0000 C   0  0
    5.4542   -7.5250    0.0000 H   0  0
    3.9958  -12.1000    0.0000 H   0  0
    4.7125  -10.8667    0.0000 H   0  0
    6.1625   -8.4042    0.0000 H   0  0
    7.6750   -8.5708    0.0000 H   0  0
 27 28  1  0
 28 29  1  0
 29 31  1  0
 30 31  1  0
  5  7  1  0
 12 17  1  0
 13 14  1  0
 14 15  1  0
 30 33  1  0
 31 42  1  0
 41 32  1  0
 32 33  1  0
 15 16  1  0
 24 34  1  0
 16 17  1  0
 24 35  1  0
  7  8  1  1
 23 36  1  1
 17 18  1  6
 26 37  1  1
  7  9  1  0
 31 38  1  1
 16 19  1  1
 42 39  1  6
  9 10  1  0
 28 40  1  6
 41 42  1  0
 15 20  1  6
  2 10  1  0
 14 21  1  1
 21  1  1  0
 22 23  1  0
 42 43  1  0
 43 44  1  0
 44 45  1  0
 45 41  1  0
 45 46  1  0
  2  1  1  1
 46 47  1  0
 12 11  1  0
 47 48  1  0
 12 13  1  0
 48 49  1  0
 22 25  1  0
 49 50  2  0
 23 24  1  0
 50 51  1  0
 24 27  1  0
 50 52  1  0
 26 25  1  0
 32 53  1  1
 26 27  1  0
 46 54  1  6
 46 11  1  0
  2  3  1  0
 12 55  1  6
  3  4  1  6
 27 56  1  6
  3  5  1  0
 30 57  1  6
  5  6  1  1
 41 58  1  1
 26 30  1  0
 45 59  1  6
M  END
>  <MOLREGNO>
626691

>  <CHEMBLID>
CHEMBL1095004

>  <SYNONYMS>
Ginsenoside F3

>  <MAX_PHASE>
0

>  <MOLWEIGHT>
770.99

>  <ALOGP>
1.64

>  <PSA>
218.98

>  <HBA>
13

>  <HBD>
9

>  <RO5>
3

>  <RTB>
9

>  <RO3>
N

>  <ACD_MOST_APKA>
12.92

>  <ACD_MOST_BPKA>


>  <ACD_LOGP>
3.17

>  <ACD_LOGD>
3.17

>  <AROMATIC_RINGS>
0

>  <HEAVY_ATOMS>
54

>  <QED_WEIGHTED>
.15

>  <HBA_LIPINSKI>
13

>  <HBD_LIPINSKI>
9

>  <NUM_LIPINSKI_RO5_VIOLATIONS>
2

>  <MW_MONOISOTOPIC>
770.4816

>  <MOLECULAR_SPECIES>
NEUTRAL

>  <FULL_MOLFORMULA>
C41H70O13

$$$$

  CDK    6/4/10,11:41

 60 65  0  0  0  0  0  0  0  0999 V2000
    8.8579  -22.1821    0.0000 C   0  0  0  0  0  0  0  0  0  0  0  0
    8.8579  -23.0075    0.0000 C   0  0  0  0  0  0  0  0  0  0  0  0
    9.5708  -23.4180    0.0000 C   0  0  0  0  0  0  0  0  0  0  0  0
    9.5708  -21.7674    0.0000 C   0  0  0  0  0  0  0  0  0  0  0  0
   10.2836  -22.1821    0.0000 C   0  0  0  0  0  0  0  0  0  0  0  0
   10.2846  -23.0075    0.0000 C   0  0  0  0  0  0  0  0  0  0  0  0
   10.9964  -23.4189    0.0000 C   0  0  0  0  0  0  0  0  0  0  0  0
   11.7118  -23.0056    0.0000 C   0  0  0  0  0  0  0  0  0  0  0  0
   10.9943  -21.7684    0.0000 C   0  0  0  0  0  0  0  0  0  0  0  0
   11.7103  -22.1849    0.0000 C   0  0  0  0  0  0  0  0  0  0  0  0
   11.7182  -20.5301    0.0000 C   0  0  0  0  0  0  0  0  0  0  0  0
   10.9952  -20.9418    0.0000 C   0  0  0  0  0  0  0  0  0  0  0  0
   12.4341  -20.9507    0.0000 C   0  0  0  0  0  0  0  0  0  0  0  0
   12.4260  -21.7759    0.0000 C   0  0  0  0  0  0  0  0  0  0  0  0
   13.2044  -22.0372    0.0000 C   0  0  0  0  0  0  0  0  0  0  0  0
   13.6977  -21.3737    0.0000 C   0  0  0  0  0  0  0  0  0  0  0  0
   13.2184  -20.7001    0.0000 C   0  0  0  0  0  0  0  0  0  0  0  0
   13.2245  -19.8750    0.0000 C   0  0  0  0  0  0  0  0  0  0  0  0
   13.9428  -19.4696    0.0000 C   0  0  0  0  0  0  0  0  0  0  0  0
   14.6549  -19.8855    0.0000 C   0  0  0  0  0  0  0  0  0  0  0  0
   15.3731  -19.4803    0.0000 C   0  0  0  0  0  0  0  0  0  0  0  0
   16.0854  -19.8962    0.0000 C   0  0  0  0  0  0  0  0  0  0  0  0
   16.8037  -19.4908    0.0000 C   0  0  0  0  0  0  0  0  0  0  0  0
   16.0792  -20.7213    0.0000 C   0  0  0  0  0  0  0  0  0  0  0  0
    8.1434  -23.4232    0.0000 O   0  0  0  0  0  0  0  0  0  0  0  0
   10.9895  -24.2432    0.0000 O   0  0  0  0  0  0  0  0  0  0  0  0
   10.2762  -21.3569    0.0000 C   0  0  0  0  0  0  0  0  0  0  0  0
   11.7027  -21.3569    0.0000 C   0  0  0  0  0  0  0  0  0  0  0  0
   12.4202  -22.6009    0.0000 C   0  0  0  0  0  0  0  0  0  0  0  0
   12.5165  -19.4591    0.0000 O   0  0  0  0  0  0  0  0  0  0  0  0
   13.2164  -19.0470    0.0000 C   0  0  0  0  0  0  0  0  0  0  0  0
   12.5227  -18.6339    0.0000 C   0  0  0  0  0  0  0  0  0  0  0  0
   13.2468  -18.2270    0.0000 O   0  0  0  0  0  0  0  0  0  0  0  0
   13.2547  -17.4055    0.0000 C   0  0  0  0  0  0  0  0  0  0  0  0
   12.5445  -16.9858    0.0000 C   0  0  0  0  0  0  0  0  0  0  0  0
   11.8243  -17.3898    0.0000 C   0  0  0  0  0  0  0  0  0  0  0  0
   11.8146  -18.2175    0.0000 C   0  0  0  0  0  0  0  0  0  0  0  0
   11.0958  -18.6259    0.0000 O   0  0  0  0  0  0  0  0  0  0  0  0
   11.1137  -16.9715    0.0000 O   0  0  0  0  0  0  0  0  0  0  0  0
   12.5537  -16.1606    0.0000 O   0  0  0  0  0  0  0  0  0  0  0  0
   13.9705  -17.0029    0.0000 C   0  0  0  0  0  0  0  0  0  0  0  0
   14.6811  -17.4214    0.0000 O   0  0  0  0  0  0  0  0  0  0  0  0
   11.7238  -19.7048    0.0000 O   0  0  0  0  0  0  0  0  0  0  0  0
   10.2804  -23.8285    0.0000 H   0  0  0  0  0  0  0  0  0  0  0  0
   10.9895  -22.5927    0.0000 H   0  0  0  0  0  0  0  0  0  0  0  0
   14.0417  -20.6975    0.0000 H   0  0  0  0  0  0  0  0  0  0  0  0
   12.4284  -20.1253    0.0000 H   0  0  0  0  0  0  0  0  0  0  0  0
   15.4012  -17.0185    0.0000 C   0  0  0  0  0  0  0  0  0  0  0  0
   16.1804  -17.2790    0.0000 C   0  0  0  0  0  0  0  0  0  0  0  0
   16.6772  -16.6178    0.0000 C   0  0  0  0  0  0  0  0  0  0  0  0
   16.2005  -15.9422    0.0000 C   0  0  0  0  0  0  0  0  0  0  0  0
   15.4118  -16.1883    0.0000 O   0  0  0  0  0  0  0  0  0  0  0  0
   16.4243  -18.0672    0.0000 O   0  0  0  0  0  0  0  0  0  0  0  0
   17.5024  -16.6304    0.0000 O   0  0  0  0  0  0  0  0  0  0  0  0
   16.4660  -15.1611    0.0000 C   0  0  0  0  0  0  0  0  0  0  0  0
   17.2758  -15.0024    0.0000 O   0  0  0  0  0  0  0  0  0  0  0  0
    9.1523  -24.1271    0.0000 C   0  0  0  0  0  0  0  0  0  0  0  0
    9.9735  -24.1271    0.0000 C   0  0  0  0  0  0  0  0  0  0  0  0
   11.8408  -19.1948    0.0000 H   0  0  0  0  0  0  0  0  0  0  0  0
   15.3936  -17.8361    0.0000 H   0  0  0  0  0  0  0  0  0  0  0  0
 13 14  1  0  0  0  0 
 14 29  1  6  0  0  0 
  1  2  1  0  0  0  0 
 18 30  1  1  0  0  0 
  1  4  1  0  0  0  0 
 18 31  1  0  0  0  0 
  2  3  1  0  0  0  0 
 30 32  1  0  0  0  0 
 32 33  1  0  0  0  0 
  5  9  1  0  0  0  0 
  6  7  1  0  0  0  0 
 14 15  1  0  0  0  0 
 15 16  1  0  0  0  0 
 16 17  1  0  0  0  0 
 32 37  1  0  0  0  0 
 33 34  1  0  0  0  0 
 34 35  1  0  0  0  0 
 35 36  1  0  0  0  0 
 36 37  1  0  0  0  0 
 17 13  1  0  0  0  0 
 37 38  1  6  0  0  0 
  7  8  1  0  0  0  0 
 36 39  1  1  0  0  0 
 17 18  1  0  0  0  0 
 35 40  1  6  0  0  0 
  8 10  1  0  0  0  0 
 34 41  1  1  0  0  0 
 18 19  1  0  0  0  0 
 41 42  1  0  0  0  0 
  9 10  1  0  0  0  0 
 11 43  1  1  0  0  0 
 19 20  1  0  0  0  0 
  6 44  1  6  0  0  0 
  3  6  1  0  0  0  0 
  9 45  1  6  0  0  0 
 20 21  1  0  0  0  0 
 17 46  1  6  0  0  0 
  5  4  1  0  0  0  0 
 13 47  1  1  0  0  0 
 21 22  2  0  0  0  0 
 42 48  1  0  0  0  0 
 48 49  1  0  0  0  0 
  5  6  1  0  0  0  0 
 22 23  1  0  0  0  0 
 22 24  1  0  0  0  0 
 49 50  1  0  0  0  0 
 50 51  1  0  0  0  0 
 51 52  1  0  0  0  0 
 52 48  1  0  0  0  0 
  9 12  1  0  0  0  0 
 49 53  1  6  0  0  0 
  2 25  1  1  0  0  0 
 50 54  1  1  0  0  0 
 10 14  1  0  0  0  0 
 51 55  1  6  0  0  0 
  7 26  1  6  0  0  0 
 55 56  1  0  0  0  0 
 13 11  1  0  0  0  0 
  3 57  1  0  0  0  0 
  5 27  1  1  0  0  0 
  3 58  1  0  0  0  0 
 11 12  1  0  0  0  0 
 32 59  1  6  0  0  0 
 10 28  1  1  0  0  0 
 48 60  1  6  0  0  0 
M  END
>  <MOLREGNO>
590164

>  <CHEMBLID>
CHEMBL583152

>  <SYNONYMS>
Ginsenoside F5

>  <MAX_PHASE>
0

>  <MOLWEIGHT>
770.99

>  <ALOGP>
1.64

>  <PSA>
218.98

>  <HBA>
13

>  <HBD>
9

>  <RO5>
3

>  <RTB>
10

>  <RO3>
N

>  <ACD_MOST_APKA>
12.91

>  <ACD_MOST_BPKA>


>  <ACD_LOGP>
3.81

>  <ACD_LOGD>
3.81

>  <AROMATIC_RINGS>
0

>  <HEAVY_ATOMS>
54

>  <QED_WEIGHTED>
.15

>  <HBA_LIPINSKI>
13

>  <HBD_LIPINSKI>
9

>  <NUM_LIPINSKI_RO5_VIOLATIONS>
2

>  <MW_MONOISOTOPIC>
770.4816

>  <MOLECULAR_SPECIES>
NEUTRAL

>  <FULL_MOLFORMULA>
C41H70O13

$$$$

  SciTegic05221516342D

 25 29  0  0  0  0            999 V2000
    2.2851  -15.0850    0.0000 C   0  0
    2.2839  -15.9045    0.0000 C   0  0
    2.9920  -16.3135    0.0000 N   0  0
    2.9902  -14.6761    0.0000 C   0  0
    3.6988  -15.0814    0.0000 C   0  0
    3.7022  -15.9066    0.0000 C   0  0
    5.1247  -15.0755    0.0000 C   0  0
    4.4078  -14.6636    0.0000 C   0  0
    2.9883  -13.8590    0.0000 C   0  0
    1.5763  -16.3098    0.0000 C   0  0
    3.6939  -13.4527    0.0000 C   0  0
    3.6924  -12.6364    0.0000 N   0  0
    2.9832  -12.2286    0.0000 C   0  0
    2.2742  -12.6433    0.0000 C   0  0
    2.2793  -13.4583    0.0000 C   0  0
    5.1316  -15.9021    0.0000 C   0  0
    4.4148  -16.3127    0.0000 C   0  0
    4.5838  -17.1213    0.0000 C   0  0
    5.4051  -17.2105    0.0000 C   0  0
    5.7436  -16.4569    0.0000 S   0  0
    0.8745  -15.8986    0.0000 C   0  0
    0.1673  -16.3032    0.0000 C   0  0
    0.1641  -17.1196    0.0000 C   0  0
    0.8739  -17.5296    0.0000 C   0  0
    1.5781  -17.1226    0.0000 C   0  0
  1  2  2  0
  2  3  1  0
  3  6  2  0
  5  4  2  0
  4  1  1  0
  5  6  1  0
  5  8  1  0
  6 17  1  0
 16  7  1  0
  7  8  1  0
  4  9  1  0
  2 10  1  0
  9 11  2  0
 11 12  1  0
 12 13  2  0
 13 14  1  0
 14 15  2  0
 15  9  1  0
 16 17  2  0
 17 18  1  0
 18 19  2  0
 19 20  1  0
 20 16  1  0
 10 21  2  0
 21 22  1  0
 22 23  2  0
 23 24  1  0
 24 25  2  0
 25 10  1  0
M  END
>  <MOLREGNO>
1817906

>  <CHEMBLID>
CHEMBL3353794

>  <SYNONYMS>


>  <MAX_PHASE>
0

>  <MOLWEIGHT>
340.44

>  <ALOGP>
5.07

>  <PSA>
54.02

>  <HBA>
2

>  <HBD>
0

>  <RO5>
1

>  <RTB>
2

>  <RO3>
N

>  <ACD_MOST_APKA>
4.03

>  <ACD_MOST_BPKA>
7.49

>  <ACD_LOGP>
-.18

>  <ACD_LOGD>
-2.94

>  <AROMATIC_RINGS>
4

>  <HEAVY_ATOMS>
25

>  <QED_WEIGHTED>
.51

>  <HBA_LIPINSKI>
2

>  <HBD_LIPINSKI>
0

>  <NUM_LIPINSKI_RO5_VIOLATIONS>
1

>  <MW_MONOISOTOPIC>
340.1034

>  <MOLECULAR_SPECIES>
ACID

>  <FULL_MOLFORMULA>
C22H16N2S

$$$$

          05140812122D 1   1.00000     0.00000     0

 60 65  0     1  0            999 V2000
    3.0875  -18.5125    0.0000 C   0  0  0  0  0  0           0  0  0
    3.0875  -19.3375    0.0000 C   0  0  1  0  0  0           0  0  0
    3.7995  -19.7458    0.0000 C   0  0  3  0  0  0           0  0  0
    3.7995  -18.0958    0.0000 C   0  0  0  0  0  0           0  0  0
    4.5115  -18.5125    0.0000 C   0  0  2  0  0  0           0  0  0
    4.5080  -19.3375    0.0000 C   0  0  1  0  0  0           0  0  0
    5.2168  -19.7507    0.0000 C   0  0  0  0  0  0           0  0  0
    5.9336  -19.3435    0.0000 C   0  0  0  0  0  0           0  0  0
    5.9371  -18.5234    0.0000 C   0  0  2  0  0  0           0  0  0
    5.9542  -16.8681    0.0000 C   0  0  1  0  0  0           0  0  0
    5.2292  -17.2739    0.0000 C   0  0  0  0  0  0           0  0  0
    6.6541  -18.1173    0.0000 C   0  0  1  0  0  0           0  0  0
    7.4360  -18.3855    0.0000 C   0  0  0  0  0  0           0  0  0
    7.9328  -17.7247    0.0000 C   0  0  0  0  0  0           0  0  0
    7.4605  -16.2222    0.0000 C   0  0  0  0  0  0           0  0  0
    2.3736  -19.7510    0.0000 O   0  0  0  0  0  0           0  0  0
    4.5042  -17.6875    0.0000 C   0  0  0  0  0  0           0  0  0
    5.9500  -16.0417    0.0000 O   0  0  0  0  0  0           0  0  0
    5.9292  -17.6958    0.0000 C   0  0  0  0  0  0           0  0  0
    1.6686  -19.3150    0.0000 C   0  0  2  0  0  0           0  0  0
    1.6988  -18.4907    0.0000 O   0  0  0  0  0  0           0  0  0
    1.0030  -18.0541    0.0000 C   0  0  1  0  0  0           0  0  0
    0.2725  -18.4382    0.0000 C   0  0  2  0  0  0           0  0  0
    0.2421  -19.2636    0.0000 C   0  0  1  0  0  0           0  0  0
    0.9422  -19.7049    0.0000 C   0  0  1  0  0  0           0  0  0
    2.4016  -18.9237    0.0000 H   0  0  0  0  0  0           0  0  0
   -0.4875  -19.6488    0.0000 O   0  0  0  0  0  0           0  0  0
    0.9135  -20.5294    0.0000 O   0  0  0  0  0  0           0  0  0
    0.1850  -20.9167    0.0000 C   0  0  2  0  0  0           0  0  0
   -0.4257  -17.9987    0.0000 O   0  0  0  0  0  0           0  0  0
   -0.5158  -20.4797    0.0000 O   0  0  0  0  0  0           0  0  0
   -1.2419  -20.8636    0.0000 C   0  0  1  0  0  0           0  0  0
   -1.2750  -21.6883    0.0000 C   0  0  2  0  0  0           0  0  0
   -0.5756  -22.1276    0.0000 C   0  0  1  0  0  0           0  0  0
    0.1569  -21.7423    0.0000 C   0  0  1  0  0  0           0  0  0
    1.0345  -17.2297    0.0000 C   0  0  0  0  0  0           0  0  0
    1.7642  -16.8448    0.0000 O   0  0  0  0  0  0           0  0  0
   -1.9399  -20.4238    0.0000 C   0  0  0  0  0  0           0  0  0
   -2.6698  -20.8083    0.0000 O   0  0  0  0  0  0           0  0  0
   -2.0049  -22.0728    0.0000 O   0  0  0  0  0  0           0  0  0
    0.8557  -22.1807    0.0000 O   0  0  0  0  0  0           0  0  0
   -0.6072  -22.9520    0.0000 O   0  0  0  0  0  0           0  0  0
    0.8958  -21.3292    0.0000 H   0  0  0  0  0  0           0  0  0
    6.6458  -18.9417    0.0000 C   0  0  0  0  0  0           0  0  0
    4.5000  -20.1583    0.0000 H   0  0  0  0  0  0           0  0  0
    3.0792  -20.1542    0.0000 C   0  0  0  0  0  0           0  0  0
    4.0083  -20.5417    0.0000 C   0  0  0  0  0  0           0  0  0
    8.1773  -15.8057    0.0000 C   0  0  0  0  0  0           0  0  0
    6.7472  -15.8077    0.0000 C   0  0  0  0  0  0           0  0  0
    8.1776  -14.9807    0.0000 C   0  0  0  0  0  0           0  0  0
    8.8913  -14.5759    0.0000 C   0  0  0  0  0  0           0  0  0
    9.6012  -14.9961    0.0000 C   0  0  0  0  0  0           0  0  0
   10.3201  -14.5914    0.0000 C   0  0  0  0  0  0           0  0  0
    9.5923  -15.8210    0.0000 C   0  0  0  0  0  0           0  0  0
    5.2238  -18.1007    0.0000 C   0  0  2  0  0  0           0  0  0
    6.6675  -17.2908    0.0000 C   0  0  1  0  0  0           0  0  0
    7.4583  -17.0469    0.0000 C   0  0  2  0  0  0           0  0  0
    8.1728  -16.6344    0.0000 H   0  0  0  0  0  0           0  0  0
    6.6675  -16.4658    0.0000 H   0  0  0  0  0  0           0  0  0
    5.2238  -18.9257    0.0000 H   0  0  0  0  0  0           0  0  0
 21 22  1  0     0  0
 22 23  1  0     0  0
 23 24  1  0     0  0
 24 25  1  0     0  0
 56 12  1  0     0  0
 20 26  1  6     0  0
  1  2  1  0     0  0
 24 27  1  1     0  0
  1  4  1  0     0  0
 25 28  1  6     0  0
  2  3  1  0     0  0
 28 29  1  0     0  0
  5 55  1  0     0  0
 23 30  1  6     0  0
 29 31  1  0     0  0
  6  7  1  0     0  0
 12 13  1  0     0  0
 13 14  1  0     0  0
 14 57  1  0     0  0
 57 56  1  0     0  0
 29 35  1  0     0  0
 31 32  1  0     0  0
 32 33  1  0     0  0
 33 34  1  0     0  0
 34 35  1  0     0  0
  7  8  1  0     0  0
 22 36  1  1     0  0
 57 15  1  0     0  0
 36 37  1  0     0  0
  8  9  1  0     0  0
 32 38  1  1     0  0
  2 16  1  1     0  0
 38 39  1  0     0  0
 55  9  1  0     0  0
 33 40  1  6     0  0
  5 17  1  1     0  0
 35 41  1  6     0  0
  3  6  1  0     0  0
 34 42  1  1     0  0
 10 18  1  1     0  0
 29 43  1  6     0  0
  5  4  1  0     0  0
 12 44  1  6     0  0
  9 19  1  1     0  0
  6 45  1  6     0  0
  5  6  1  0     0  0
  3 46  1  0     0  0
 16 20  1  0     0  0
  3 47  1  0     0  0
 20 21  1  0     0  0
 15 48  2  0     0  0
 15 49  1  0     0  0
 55 11  1  0     0  0
 48 50  1  0     0  0
  9 12  1  0     0  0
 50 51  1  0     0  0
 56 10  1  0     0  0
 51 52  2  0     0  0
 10 11  1  0     0  0
 52 53  1  0     0  0
 20 25  1  0     0  0
 52 54  1  0     0  0
 55 60  1  6     0  0
 56 59  1  1     0  0
 57 58  1  6     0  0
M  END
>  <MOLREGNO>
420081

>  <CHEMBLID>
CHEMBL400244

>  <SYNONYMS>
Ginsenoside Rg5

>  <MAX_PHASE>
0

>  <MOLWEIGHT>
767

>  <ALOGP>
3.26

>  <PSA>
198.76

>  <HBA>
12

>  <HBD>
8

>  <RO5>
3

>  <RTB>
9

>  <RO3>
N

>  <ACD_MOST_APKA>
12.85

>  <ACD_MOST_BPKA>


>  <ACD_LOGP>
6.93

>  <ACD_LOGD>
6.93

>  <AROMATIC_RINGS>
0

>  <HEAVY_ATOMS>
54

>  <QED_WEIGHTED>
.13

>  <HBA_LIPINSKI>
12

>  <HBD_LIPINSKI>
8

>  <NUM_LIPINSKI_RO5_VIOLATIONS>
2

>  <MW_MONOISOTOPIC>
766.4867

>  <MOLECULAR_SPECIES>
NEUTRAL

>  <FULL_MOLFORMULA>
C42H70O12

$$$$

          05140812122D 1   1.00000     0.00000     0

 60 65  0     1  0            999 V2000
    2.6208   -9.0208    0.0000 C   0  0  0  0  0  0           0  0  0
    2.6208   -9.8458    0.0000 C   0  0  1  0  0  0           0  0  0
    3.3329  -10.2542    0.0000 C   0  0  3  0  0  0           0  0  0
    3.3329   -8.6042    0.0000 C   0  0  0  0  0  0           0  0  0
    4.0449   -9.0208    0.0000 C   0  0  2  0  0  0           0  0  0
    4.0414   -9.8458    0.0000 C   0  0  1  0  0  0           0  0  0
    4.7501  -10.2591    0.0000 C   0  0  0  0  0  0           0  0  0
    5.4669   -9.8519    0.0000 C   0  0  0  0  0  0           0  0  0
    5.4705   -9.0317    0.0000 C   0  0  2  0  0  0           0  0  0
    5.4875   -7.3764    0.0000 C   0  0  1  0  0  0           0  0  0
    4.7625   -7.7822    0.0000 C   0  0  0  0  0  0           0  0  0
    6.1874   -8.6256    0.0000 C   0  0  1  0  0  0           0  0  0
    6.9693   -8.8938    0.0000 C   0  0  0  0  0  0           0  0  0
    7.4661   -8.2330    0.0000 C   0  0  0  0  0  0           0  0  0
    6.9939   -6.7305    0.0000 C   0  0  0  0  0  0           0  0  0
    1.9070  -10.2594    0.0000 O   0  0  0  0  0  0           0  0  0
    4.0375   -8.1958    0.0000 C   0  0  0  0  0  0           0  0  0
    5.4833   -6.5500    0.0000 O   0  0  0  0  0  0           0  0  0
    5.4625   -8.2042    0.0000 C   0  0  0  0  0  0           0  0  0
    1.2020   -9.8233    0.0000 C   0  0  2  0  0  0           0  0  0
    1.2321   -8.9990    0.0000 O   0  0  0  0  0  0           0  0  0
    0.5364   -8.5624    0.0000 C   0  0  1  0  0  0           0  0  0
   -0.1942   -8.9465    0.0000 C   0  0  2  0  0  0           0  0  0
   -0.2246   -9.7719    0.0000 C   0  0  1  0  0  0           0  0  0
    0.4756  -10.2132    0.0000 C   0  0  1  0  0  0           0  0  0
    1.9349   -9.4320    0.0000 H   0  0  0  0  0  0           0  0  0
   -0.9541  -10.1571    0.0000 O   0  0  0  0  0  0           0  0  0
    0.4468  -11.0377    0.0000 O   0  0  0  0  0  0           0  0  0
   -0.2816  -11.4251    0.0000 C   0  0  2  0  0  0           0  0  0
   -0.8924   -8.5070    0.0000 O   0  0  0  0  0  0           0  0  0
   -0.9824  -10.9880    0.0000 O   0  0  0  0  0  0           0  0  0
   -1.7086  -11.3719    0.0000 C   0  0  1  0  0  0           0  0  0
   -1.7417  -12.1966    0.0000 C   0  0  2  0  0  0           0  0  0
   -1.0423  -12.6360    0.0000 C   0  0  1  0  0  0           0  0  0
   -0.3098  -12.2506    0.0000 C   0  0  1  0  0  0           0  0  0
    0.5679   -7.7380    0.0000 C   0  0  0  0  0  0           0  0  0
    1.2976   -7.3531    0.0000 O   0  0  0  0  0  0           0  0  0
   -2.4066  -10.9321    0.0000 C   0  0  0  0  0  0           0  0  0
   -3.1365  -11.3167    0.0000 O   0  0  0  0  0  0           0  0  0
   -2.4715  -12.5812    0.0000 O   0  0  0  0  0  0           0  0  0
    0.3891  -12.6891    0.0000 O   0  0  0  0  0  0           0  0  0
   -1.0738  -13.4604    0.0000 O   0  0  0  0  0  0           0  0  0
    0.4292  -11.8375    0.0000 H   0  0  0  0  0  0           0  0  0
    6.1792   -9.4500    0.0000 C   0  0  0  0  0  0           0  0  0
    4.0333  -10.6667    0.0000 H   0  0  0  0  0  0           0  0  0
    2.6125  -10.6625    0.0000 C   0  0  0  0  0  0           0  0  0
    3.5417  -11.0500    0.0000 C   0  0  0  0  0  0           0  0  0
    7.7095   -6.3199    0.0000 C   0  0  0  0  0  0           0  0  0
    6.2805   -6.3161    0.0000 C   0  0  0  0  0  0           0  0  0
    8.4228   -6.7344    0.0000 C   0  0  0  0  0  0           0  0  0
    9.1384   -6.3238    0.0000 C   0  0  0  0  0  0           0  0  0
    9.8518   -6.7383    0.0000 C   0  0  0  0  0  0           0  0  0
   10.5673   -6.3277    0.0000 C   0  0  0  0  0  0           0  0  0
    9.8495   -7.5632    0.0000 C   0  0  0  0  0  0           0  0  0
    4.7571   -8.6091    0.0000 C   0  0  2  0  0  0           0  0  0
    4.7571   -9.4341    0.0000 H   0  0  0  0  0  0           0  0  0
    6.2008   -7.7991    0.0000 C   0  0  1  0  0  0           0  0  0
    6.2008   -6.9741    0.0000 H   0  0  0  0  0  0           0  0  0
    6.9916   -7.5553    0.0000 C   0  0  2  0  0  0           0  0  0
    7.8166   -7.5553    0.0000 H   0  0  0  0  0  0           0  0  0
 21 22  1  0     0  0
 22 23  1  0     0  0
 23 24  1  0     0  0
 24 25  1  0     0  0
 57 12  1  0     0  0
 20 26  1  6     0  0
  1  2  1  0     0  0
 24 27  1  1     0  0
  1  4  1  0     0  0
 25 28  1  6     0  0
  2  3  1  0     0  0
 28 29  1  0     0  0
  5 55  1  0     0  0
 23 30  1  6     0  0
 29 31  1  0     0  0
  6  7  1  0     0  0
 12 13  1  0     0  0
 13 14  1  0     0  0
 14 59  1  0     0  0
 59 57  1  0     0  0
 29 35  1  0     0  0
 31 32  1  0     0  0
 32 33  1  0     0  0
 33 34  1  0     0  0
 34 35  1  0     0  0
  7  8  1  0     0  0
 22 36  1  1     0  0
 59 15  1  0     0  0
 36 37  1  0     0  0
  8  9  1  0     0  0
 32 38  1  1     0  0
  2 16  1  1     0  0
 38 39  1  0     0  0
 55  9  1  0     0  0
 33 40  1  6     0  0
  5 17  1  1     0  0
 35 41  1  6     0  0
  3  6  1  0     0  0
 34 42  1  1     0  0
 10 18  1  1     0  0
 29 43  1  6     0  0
  5  4  1  0     0  0
 12 44  1  6     0  0
  9 19  1  1     0  0
  6 45  1  6     0  0
  5  6  1  0     0  0
  3 46  1  0     0  0
 16 20  1  0     0  0
  3 47  1  0     0  0
 20 21  1  0     0  0
 15 48  1  0     0  0
 15 49  2  0     0  0
 55 11  1  0     0  0
 48 50  1  0     0  0
  9 12  1  0     0  0
 50 51  1  0     0  0
 57 10  1  0     0  0
 51 52  2  0     0  0
 10 11  1  0     0  0
 52 53  1  0     0  0
 20 25  1  0     0  0
 52 54  1  0     0  0
 55 56  1  6     0  0
 57 58  1  1     0  0
 59 60  1  6     0  0
M  END
>  <MOLREGNO>
420080

>  <CHEMBLID>
CHEMBL251235

>  <SYNONYMS>
Gisenoside Rk1

>  <MAX_PHASE>
0

>  <MOLWEIGHT>
767

>  <ALOGP>
3.32

>  <PSA>
198.76

>  <HBA>
12

>  <HBD>
8

>  <RO5>
3

>  <RTB>
10

>  <RO3>
N

>  <ACD_MOST_APKA>
12.85

>  <ACD_MOST_BPKA>


>  <ACD_LOGP>
6.77

>  <ACD_LOGD>
6.77

>  <AROMATIC_RINGS>
0

>  <HEAVY_ATOMS>
54

>  <QED_WEIGHTED>
.12

>  <HBA_LIPINSKI>
12

>  <HBD_LIPINSKI>
8

>  <NUM_LIPINSKI_RO5_VIOLATIONS>
2

>  <MW_MONOISOTOPIC>
766.4867

>  <MOLECULAR_SPECIES>
NEUTRAL

>  <FULL_MOLFORMULA>
C42H70O12

$$$$

  SciTegic04191614212D

 48 52  0  0  0  0            999 V2000
   -5.4390   -1.0663    0.0000 O   0  0
   -7.7669    0.6372    0.0000 O   0  0
   -7.7050    3.3366    0.0000 O   0  0
   -5.3365    4.6327    0.0000 O   0  0
   -4.1168    1.1538    0.0000 O   0  0
   -1.7400    2.7460    0.0000 O   0  0
   -5.4336    0.4346    0.0000 C   0  0  2  0  0  0
   -6.7142    1.2133    0.0000 C   0  0  1  0  0  0
   -6.6798    2.7129    0.0000 C   0  0  2  0  0  0
   -5.3639    3.4330    0.0000 C   0  0  1  0  0  0
   -4.0824    2.6534    0.0000 C   0  0  1  0  0  0
   -2.7643    3.3711    0.0000 C   0  0
   -4.1792   -0.4015    0.0000 C   0  0
   -4.1792   -1.8432    0.0000 C   0  0  1  0  0  0
   -2.9382   -2.5732    0.0000 C   0  0
   -2.9565    0.3102    0.0000 C   0  0
   -1.6790   -0.3832    0.0000 C   0  0  1  0  0  0
   -1.6790   -1.8250    0.0000 C   0  0  1  0  0  0
   -0.4197   -2.5550    0.0000 C   0  0
    0.8212   -1.8067    0.0000 C   0  0
   -0.4380    0.3285    0.0000 C   0  0  2  0  0  0
    0.8030   -0.3650    0.0000 C   0  0  2  0  0  0
    0.8030    2.5185    0.0000 C   0  0  2  0  0  0
   -0.4562    1.7885    0.0000 C   0  0
    2.0440    1.7885    0.0000 C   0  0  1  0  0  0
    2.0440    0.3467    0.0000 C   0  0  1  0  0  0
    4.5625    0.3285    0.0000 C   0  0
    4.5625    1.8067    0.0000 C   0  0
    3.3032    2.5367    0.0000 C   0  0  2  0  0  0
    0.8068    3.7185    0.0000 O   0  0
    1.8451   -0.9599    0.0000 C   0  0
   -1.6930    0.8167    0.0000 C   0  0
   -1.8844   -3.1471    0.0000 C   0  0
   -3.9895   -3.1519    0.0000 C   0  0
    2.3487   -0.8139    0.0000 C   0  0
   -0.8157   -1.3203    0.0000 H   0  0
   -0.4332   -0.6715    0.0000 H   0  0
    2.0418    2.7885    0.0000 H   0  0
    4.5993    3.2532    0.0000 C   0  0
    4.5927    4.4532    0.0000 C   0  0
    3.3325    1.5372    0.0000 H   0  0
    5.9034    2.5103    0.0000 C   0  0
    7.1993    3.2675    0.0000 C   0  0
    8.5033    2.5246    0.0000 C   0  0
    9.7992    3.2818    0.0000 C   0  0
   10.8419    2.6878    0.0000 C   0  0
    9.7926    4.4817    0.0000 C   0  0
   -3.3238   -1.3253    0.0000 H   0  0
  6 12  1  0
 11  5  1  0
  5  7  1  0
  7  8  1  0
  8  9  1  0
  9 10  1  0
 10 11  1  0
 11 12  1  1
  7  1  1  1
  8  2  1  6
  9  3  1  1
 10  4  1  6
 13 14  1  0
 13 16  1  0
 14 15  1  0
 15 18  1  0
 17 16  1  0
 17 18  1  0
 17 21  1  0
 18 19  1  0
 19 20  1  0
 20 22  1  0
 21 22  1  0
 21 24  1  0
 22 26  1  0
 25 23  1  0
 23 24  1  0
 25 26  1  0
 26 27  1  0
 27 28  1  0
 28 29  1  0
 29 25  1  0
 23 30  1  1
 22 31  1  1
 17 32  1  1
 15 33  1  0
 15 34  1  0
 14  1  1  0
 26 35  1  6
 18 36  1  6
 21 37  1  6
 25 38  1  1
 29 39  1  0
 39 40  2  0
 29 41  1  6
 39 42  1  0
 42 43  1  0
 43 44  1  0
 44 45  2  0
 45 46  1  0
 45 47  1  0
 14 48  1  6
M  END
>  <MOLREGNO>
1952958

>  <CHEMBLID>
CHEMBL3594354

>  <SYNONYMS>


>  <MAX_PHASE>
0

>  <MOLWEIGHT>
604.86

>  <ALOGP>
5.06

>  <PSA>
119.61

>  <HBA>
7

>  <HBD>
5

>  <RO5>
2

>  <RTB>
7

>  <RO3>
N

>  <ACD_MOST_APKA>
12.91

>  <ACD_MOST_BPKA>


>  <ACD_LOGP>
6.63

>  <ACD_LOGD>
6.63

>  <AROMATIC_RINGS>
0

>  <HEAVY_ATOMS>
43

>  <QED_WEIGHTED>
.2

>  <HBA_LIPINSKI>
7

>  <HBD_LIPINSKI>
5

>  <NUM_LIPINSKI_RO5_VIOLATIONS>
1

>  <MW_MONOISOTOPIC>
604.4339

>  <MOLECULAR_SPECIES>
NEUTRAL

>  <FULL_MOLFORMULA>
C36H60O7

$$$$

  CDK    9/16/09,10:5

 37 41  0  0  0  0  0  0  0  0999 V2000
   -4.4378   -0.8001    0.0000 C   0  0  0  0  0  0  0  0  0  0  0  0
   -4.4378   -1.6251    0.0000 C   0  0  0  0  0  0  0  0  0  0  0  0
   -3.7258   -2.0334    0.0000 C   0  0  0  0  0  0  0  0  0  0  0  0
   -3.7258   -0.3833    0.0000 C   0  0  0  0  0  0  0  0  0  0  0  0
   -3.0137   -0.8001    0.0000 C   0  0  0  0  0  0  0  0  0  0  0  0
   -3.0126   -1.6251    0.0000 C   0  0  0  0  0  0  0  0  0  0  0  0
   -2.3016   -2.0344    0.0000 C   0  0  0  0  0  0  0  0  0  0  0  0
   -1.5869   -1.6233    0.0000 C   0  0  0  0  0  0  0  0  0  0  0  0
   -2.3037   -0.3843    0.0000 C   0  0  0  0  0  0  0  0  0  0  0  0
   -1.5883   -0.8029    0.0000 C   0  0  0  0  0  0  0  0  0  0  0  0
   -1.5804    0.8517    0.0000 C   0  0  0  0  0  0  0  0  0  0  0  0
   -2.3028    0.4421    0.0000 C   0  0  0  0  0  0  0  0  0  0  0  0
   -0.8652    0.4331    0.0000 C   0  0  0  0  0  0  0  0  0  0  0  0
   -0.8733   -0.3918    0.0000 C   0  0  0  0  0  0  0  0  0  0  0  0
   -0.0912   -0.6544    0.0000 C   0  0  0  0  0  0  0  0  0  0  0  0
    0.4003    0.0082    0.0000 C   0  0  0  0  0  0  0  0  0  0  0  0
   -0.0771    0.6807    0.0000 C   0  0  0  0  0  0  0  0  0  0  0  0
   -0.0780    1.5069    0.0000 C   0  0  0  0  0  0  0  0  0  0  0  0
    0.6357    1.9227    0.0000 O   0  0  0  0  0  0  0  0  0  0  0  0
    0.6324    2.7442    0.0000 C   0  0  0  0  0  0  0  0  0  0  0  0
   -0.0814    3.1514    0.0000 C   0  0  0  0  0  0  0  0  0  0  0  0
   -0.7967    2.7401    0.0000 C   0  0  0  0  0  0  0  0  0  0  0  0
   -0.7950    1.9124    0.0000 C   0  0  0  0  0  0  0  0  0  0  0  0
    1.0376    3.4628    0.0000 C   0  0  0  0  0  0  0  0  0  0  0  0
    1.4543    2.7460    0.0000 C   0  0  0  0  0  0  0  0  0  0  0  0
    0.6333    1.0959    0.0000 C   0  0  0  0  0  0  0  0  0  0  0  0
    0.7459    0.6833    0.0000 H   0  0  0  0  0  0  0  0  0  0  0  0
   -0.8793   -1.2168    0.0000 C   0  0  0  0  0  0  0  0  0  0  0  0
   -5.1518   -2.0386    0.0000 O   0  0  0  0  0  0  0  0  0  0  0  0
   -4.1461   -2.7460    0.0000 C   0  0  0  0  0  0  0  0  0  0  0  0
   -3.3210   -2.7460    0.0000 C   0  0  0  0  0  0  0  0  0  0  0  0
   -3.0210    0.0250    0.0000 C   0  0  0  0  0  0  0  0  0  0  0  0
   -1.5959    0.0250    0.0000 C   0  0  0  0  0  0  0  0  0  0  0  0
   -1.5748    1.6767    0.0000 O   0  0  0  0  0  0  0  0  0  0  0  0
   -3.0169   -2.4460    0.0000 H   0  0  0  0  0  0  0  0  0  0  0  0
   -2.3085   -1.2084    0.0000 H   0  0  0  0  0  0  0  0  0  0  0  0
   -0.8709    1.2584    0.0000 H   0  0  0  0  0  0  0  0  0  0  0  0
 17 13  1  0  0  0  0 
 18 19  1  0  0  0  0 
  7  8  1  0  0  0  0 
  8 10  1  0  0  0  0 
  9 10  1  0  0  0  0 
  3  6  1  0  0  0  0 
  5  4  1  0  0  0  0 
  5  6  1  0  0  0  0 
 18 23  1  0  0  0  0 
 19 20  1  0  0  0  0 
 20 21  1  0  0  0  0 
 21 22  1  0  0  0  0 
 22 23  1  0  0  0  0 
 17 18  1  0  0  0  0 
 20 24  1  0  0  0  0 
  9 12  1  0  0  0  0 
 20 25  1  0  0  0  0 
 10 14  1  0  0  0  0 
 18 26  1  6  0  0  0 
 13 11  1  0  0  0  0 
 17 27  1  6  0  0  0 
 11 12  1  0  0  0  0 
 14 28  1  6  0  0  0 
 13 14  1  0  0  0  0 
  2 29  1  1  0  0  0 
  1  2  1  0  0  0  0 
  3 30  1  0  0  0  0 
  1  4  1  0  0  0  0 
  3 31  1  0  0  0  0 
  2  3  1  0  0  0  0 
  5 32  1  1  0  0  0 
  5  9  1  0  0  0  0 
 10 33  1  1  0  0  0 
  6  7  1  0  0  0  0 
 11 34  1  1  0  0  0 
 14 15  1  0  0  0  0 
  6 35  1  6  0  0  0 
 15 16  1  0  0  0  0 
  9 36  1  6  0  0  0 
 16 17  1  0  0  0  0 
 13 37  1  1  0  0  0 
M  END
>  <MOLREGNO>
499506

>  <CHEMBLID>
CHEMBL491655

>  <SYNONYMS>
20(R)-Panaxadiol | Panaxadiol

>  <MAX_PHASE>
0

>  <MOLWEIGHT>
460.73

>  <ALOGP>
5.45

>  <PSA>
49.69

>  <HBA>
3

>  <HBD>
2

>  <RO5>
1

>  <RTB>
1

>  <RO3>
N

>  <ACD_MOST_APKA>


>  <ACD_MOST_BPKA>


>  <ACD_LOGP>
7.27

>  <ACD_LOGD>
7.27

>  <AROMATIC_RINGS>
0

>  <HEAVY_ATOMS>
33

>  <QED_WEIGHTED>
.55

>  <HBA_LIPINSKI>
3

>  <HBD_LIPINSKI>
2

>  <NUM_LIPINSKI_RO5_VIOLATIONS>
1

>  <MW_MONOISOTOPIC>
460.3916

>  <MOLECULAR_SPECIES>
NEUTRAL

>  <FULL_MOLFORMULA>
C30H52O3

$$$$

  Mrv0541 05201412282D          

 60 67  0  0  0  0            999 V2000
    4.0492   -5.3405    0.0000 O   0  0  0  0  0  0  0  0  0  0  0  0
    2.6423   -6.1473    0.0000 O   0  0  0  0  0  0  0  0  0  0  0  0
    1.2366   -5.3318    0.0000 O   0  0  0  0  0  0  0  0  0  0  0  0
    1.2441   -3.7128    0.0000 O   0  0  0  0  0  0  0  0  0  0  0  0
    3.3511   -4.1234    0.0000 O   0  0  0  0  0  0  0  0  0  0  0  0
    1.8869   -2.6221    0.0000 O   0  0  0  0  0  0  0  0  0  0  0  0
    3.3505   -4.9383    0.0000 C   0  0  2  0  0  0  0  0  0  0  0  0
    2.6470   -5.3396    0.0000 C   0  0  1  0  0  0  0  0  0  0  0  0
    1.9400   -4.9303    0.0000 C   0  0  2  0  0  0  0  0  0  0  0  0
    1.9448   -4.1227    0.0000 C   0  0  1  0  0  0  0  0  0  0  0  0
    2.6524   -3.7172    0.0000 C   0  0  1  0  0  0  0  0  0  0  0  0
    2.6551   -2.9060    0.0000 C   0  0  0  0  0  0  0  0  0  0  0  0
    6.8576   -5.3821    0.0000 O   0  0  0  0  0  0  0  0  0  0  0  0
    5.4410   -6.1718    0.0000 O   0  0  0  0  0  0  0  0  0  0  0  0
    4.0767   -3.7205    0.0000 O   0  0  0  0  0  0  0  0  0  0  0  0
    6.1745   -4.1567    0.0000 O   0  0  0  0  0  0  0  0  0  0  0  0
    6.1639   -4.9715    0.0000 C   0  0  2  0  0  0  0  0  0  0  0  0
    5.4556   -5.3642    0.0000 C   0  0  1  0  0  0  0  0  0  0  0  0
    4.7578   -4.9464    0.0000 C   0  0  2  0  0  0  0  0  0  0  0  0
    4.7724   -4.1389    0.0000 C   0  0  2  0  0  0  0  0  0  0  0  0
    5.4807   -3.7420    0.0000 C   0  0  1  0  0  0  0  0  0  0  0  0
    5.4933   -2.9308    0.0000 C   0  0  0  0  0  0  0  0  0  0  0  0
    8.6631   -6.0794    0.0000 C   0  0  0  0  0  0  0  0  0  0  0  0
    8.2627   -5.3778    0.0000 C   0  0  1  0  0  0  0  0  0  0  0  0
    7.8537   -6.0768    0.0000 C   0  0  0  0  0  0  0  0  0  0  0  0
   12.1010   -0.6686    0.0000 C   0  0  0  0  0  0  0  0  0  0  0  0
   12.5138   -1.3744    0.0000 C   0  0  0  0  0  0  0  0  0  0  0  0
   12.9180   -0.6661    0.0000 C   0  0  0  0  0  0  0  0  0  0  0  0
    7.5652   -4.1644    0.0000 C   0  0  0  0  0  0  0  0  0  0  0  0
    7.5652   -4.9774    0.0000 C   0  0  2  0  0  0  0  0  0  0  0  0
    8.2664   -3.7517    0.0000 C   0  0  0  0  0  0  0  0  0  0  0  0
    8.9675   -4.1644    0.0000 C   0  0  1  0  0  0  0  0  0  0  0  0
    8.9640   -4.9774    0.0000 C   0  0  1  0  0  0  0  0  0  0  0  0
    9.6620   -5.3826    0.0000 C   0  0  0  0  0  0  0  0  0  0  0  0
   10.3679   -4.9834    0.0000 C   0  0  0  0  0  0  0  0  0  0  0  0
    9.6689   -3.7565    0.0000 C   0  0  2  0  0  0  0  0  0  0  0  0
   10.3675   -4.1729    0.0000 C   0  0  2  0  0  0  0  0  0  0  0  0
   10.3842   -2.5505    0.0000 C   0  0  0  0  0  0  0  0  0  0  0  0
    9.6742   -2.9461    0.0000 C   0  0  0  0  0  0  0  0  0  0  0  0
   11.0828   -2.9627    0.0000 C   0  0  1  0  0  0  0  0  0  0  0  0
   11.0691   -3.7720    0.0000 C   0  0  1  0  0  0  0  0  0  0  0  0
   11.7587   -4.1883    0.0000 C   0  0  0  0  0  0  0  0  0  0  0  0
   12.4706   -3.7957    0.0000 C   0  0  1  0  0  0  0  0  0  0  0  0
   11.7862   -2.5655    0.0000 C   0  0  1  0  0  0  0  0  0  0  0  0
   12.4800   -2.9884    0.0000 C   0  0  2  0  0  0  0  0  0  0  0  0
   13.1851   -2.6010    0.0000 C   0  0  0  0  0  0  0  0  0  0  0  0
   13.2066   -1.7935    0.0000 C   0  0  0  0  0  0  0  0  0  0  0  0
   11.8015   -1.7595    0.0000 C   0  0  0  0  0  0  0  0  0  0  0  0
    8.9602   -3.3513    0.0000 C   0  0  0  0  0  0  0  0  0  0  0  0
   10.3593   -3.3596    0.0000 C   0  0  0  0  0  0  0  0  0  0  0  0
   11.0775   -2.1462    0.0000 O   0  0  0  0  0  0  0  0  0  0  0  0
   11.7791   -3.3761    0.0000 H   0  0  0  0  0  0  0  0  0  0  0  0
   12.4725   -2.1750    0.0000 C   0  0  0  0  0  0  0  0  0  0  0  0
   11.0610   -4.5812    0.0000 C   0  0  0  0  0  0  0  0  0  0  0  0
    9.6618   -4.5688    0.0000 H   0  0  0  0  0  0  0  0  0  0  0  0
    8.2545   -4.5647    0.0000 H   0  0  0  0  0  0  0  0  0  0  0  0
   13.1677   -4.2112    0.0000 O   0  0  0  0  0  0  0  0  0  0  0  0
    8.2601   -6.7817    0.0000 O   0  0  0  0  0  0  0  0  0  0  0  0
    3.5535   -5.7203    0.0000 H   0  0  0  0  0  0  0  0  0  0  0  0
    7.3506   -5.7657    0.0000 H   0  0  0  0  0  0  0  0  0  0  0  0
  6 12  1  0  0  0  0
 11  5  1  0  0  0  0
  5  7  1  0  0  0  0
  7  8  1  0  0  0  0
  8  9  1  0  0  0  0
  9 10  1  0  0  0  0
 10 11  1  0  0  0  0
 11 12  1  1  0  0  0
  7  1  1  0  0  0  0
  8  2  1  6  0  0  0
  9  3  1  1  0  0  0
 10  4  1  6  0  0  0
 21 16  1  0  0  0  0
 16 17  1  0  0  0  0
 17 18  1  0  0  0  0
 18 19  1  0  0  0  0
 19 20  1  0  0  0  0
 20 21  1  0  0  0  0
 21 22  1  1  0  0  0
 17 13  1  1  0  0  0
 18 14  1  6  0  0  0
 19  1  1  1  0  0  0
 20 15  1  1  0  0  0
 24 23  1  0  0  0  0
 24 25  1  6  0  0  0
 27 26  1  0  0  0  0
 28 27  1  0  0  0  0
 29 30  1  0  0  0  0
 29 31  1  0  0  0  0
 30 24  1  0  0  0  0
 24 33  1  0  0  0  0
 32 31  1  0  0  0  0
 32 33  1  0  0  0  0
 32 36  1  0  0  0  0
 33 34  1  0  0  0  0
 34 35  1  0  0  0  0
 35 37  1  0  0  0  0
 36 37  1  0  0  0  0
 36 39  1  0  0  0  0
 37 41  1  0  0  0  0
 40 38  1  0  0  0  0
 38 39  2  0  0  0  0
 40 41  1  0  0  0  0
 40 44  1  0  0  0  0
 41 42  1  0  0  0  0
 42 43  1  0  0  0  0
 43 45  1  0  0  0  0
 44 45  1  0  0  0  0
 44 48  1  0  0  0  0
 45 46  1  0  0  0  0
 46 47  1  0  0  0  0
 47 27  1  0  0  0  0
 27 48  1  0  0  0  0
 32 49  1  1  0  0  0
 37 50  1  1  0  0  0
 40 51  1  1  0  0  0
 44 52  1  1  0  0  0
 45 53  1  1  0  0  0
 41 54  1  6  0  0  0
 36 55  1  6  0  0  0
 33 56  1  6  0  0  0
 53 51  1  0  0  0  0
 43 57  1  1  0  0  0
 25 58  1  0  0  0  0
 30 13  1  0  0  0  0
  7 59  1  6  0  0  0
 30 60  1  6  0  0  0
M  END
>  <MOLREGNO>
1925321

>  <CHEMBLID>
CHEMBL3542194

>  <SYNONYMS>
SAIKOSAPONIN A

>  <MAX_PHASE>
0

>  <MOLWEIGHT>
780.98

>  <ALOGP>
1.11

>  <PSA>
207.98

>  <HBA>
13

>  <HBD>
8

>  <RO5>
3

>  <RTB>
6

>  <RO3>
N

>  <ACD_MOST_APKA>


>  <ACD_MOST_BPKA>
4.45

>  <ACD_LOGP>
2.79

>  <ACD_LOGD>
2.79

>  <AROMATIC_RINGS>
0

>  <HEAVY_ATOMS>
55

>  <QED_WEIGHTED>
.14

>  <HBA_LIPINSKI>
13

>  <HBD_LIPINSKI>
8

>  <NUM_LIPINSKI_RO5_VIOLATIONS>
2

>  <MW_MONOISOTOPIC>
780.466

>  <MOLECULAR_SPECIES>
NEUTRAL

>  <FULL_MOLFORMULA>
C42H68O13

$$$$

  SciTegic01161211252D

 65 73  0  0  0  0            999 V2000
   -3.6757    1.9152    0.0000 C   0  0
   -3.6757    2.7402    0.0000 C   0  0  2  0  0  0
   -4.3902    3.1527    0.0000 C   0  0
   -5.1047    2.7402    0.0000 C   0  0
   -5.1047    1.9152    0.0000 C   0  0  1  0  0  0
   -4.3902    1.5027    0.0000 C   0  0
   -2.9612    3.1527    0.0000 C   0  0
   -2.2467    2.7402    0.0000 C   0  0  1  0  0  0
   -2.2467    1.9152    0.0000 C   0  0
   -2.9612    1.5027    0.0000 C   0  0
   -2.9613    3.9777    0.0000 C   0  0
   -2.2468    4.3903    0.0000 C   0  0
   -1.5323    3.9778    0.0000 C   0  0  1  0  0  0
   -1.5323    3.1528    0.0000 C   0  0  1  0  0  0
   -0.8179    4.3903    0.0000 C   0  0
   -0.1034    3.9779    0.0000 C   0  0  1  0  0  0
   -0.1033    3.1529    0.0000 C   0  0  2  0  0  0
   -0.8178    2.7403    0.0000 C   0  0
   -0.8179    5.2154    0.0000 C   0  0
   -0.1035    5.6279    0.0000 C   0  0
    0.6110    5.2155    0.0000 C   0  0
    0.6111    4.3905    0.0000 C   0  0
   -0.8180    6.0404    0.0000 C   0  0
    0.4798    6.2113    0.0000 C   0  0
    0.6112    2.7404    0.0000 O   0  0
   -1.5323    2.3278    0.0000 C   0  0
   -2.2467    3.5652    0.0000 C   0  0
   -3.6757    3.5652    0.0000 C   0  0
   -3.8068    0.9193    0.0000 C   0  0
   -5.8191    1.5027    0.0000 O   0  0
   -6.2370    0.3241    0.0000 C   0  0  2  0  0  0
   -6.9515    0.7366    0.0000 O   0  0
   -7.6660    0.3241    0.0000 C   0  0  1  0  0  0
   -7.6661   -0.5010    0.0000 C   0  0  1  0  0  0
   -6.9515   -0.9134    0.0000 C   0  0  1  0  0  0
   -6.2371   -0.5009    0.0000 C   0  0  1  0  0  0
   -6.9515   -1.7384    0.0000 O   0  0
   -8.3805    0.7366    0.0000 C   0  0
   -8.3805   -0.9135    0.0000 O   0  0
   -4.9736    0.9193    0.0000 C   0  0
   -5.5226   -0.9134    0.0000 O   0  0
   -9.0167   -1.8573    0.0000 C   0  0  2  0  0  0
   -9.7312   -1.4448    0.0000 O   0  0
  -10.4456   -1.8574    0.0000 C   0  0  2  0  0  0
  -10.4457   -2.6824    0.0000 C   0  0  1  0  0  0
   -9.7312   -3.0948    0.0000 C   0  0  2  0  0  0
   -9.0167   -2.6823    0.0000 C   0  0  1  0  0  0
  -11.1601   -1.4448    0.0000 C   0  0
  -11.1601   -3.0949    0.0000 O   0  0
   -9.7312   -3.9198    0.0000 O   0  0
   -8.3022   -3.0948    0.0000 O   0  0
   -0.1034    4.8029    0.0000 C   0  0
   -1.5323    4.8028    0.0000 O   0  0
   -9.1304    2.1218    0.0000 O   0  0
   -9.8448    1.7093    0.0000 C   0  0  2  0  0  0
  -10.5593    2.1218    0.0000 O   0  0
  -11.2738    1.7093    0.0000 C   0  0  1  0  0  0
  -11.2738    0.8843    0.0000 C   0  0  2  0  0  0
  -10.5593    0.4718    0.0000 C   0  0  1  0  0  0
   -9.8448    0.8843    0.0000 C   0  0  1  0  0  0
  -11.9883    2.1218    0.0000 C   0  0
  -12.7027    1.7093    0.0000 O   0  0
  -11.9883    0.4718    0.0000 O   0  0
  -10.5593   -0.3532    0.0000 O   0  0
   -9.1304    0.4718    0.0000 O   0  0
  2  3  1  0
  3  4  1  0
  4  5  1  0
  5  6  1  0
  6  1  1  0
 10  1  1  0
  1  2  1  0
  2  7  1  0
  8  9  1  0
  9 10  1  0
 14  8  1  0
  8  7  1  0
  7 11  1  0
 11 12  2  0
 12 13  1  0
 13 15  1  0
 14 13  1  0
 18 14  1  0
 16 17  1  0
 17 18  1  0
 15 19  1  0
 16 15  1  0
 22 16  1  0
 19 20  1  0
 20 21  1  0
 21 22  1  0
 20 23  1  0
 20 24  1  0
 17 25  1  1
 14 26  1  6
  8 27  1  1
  2 28  1  1
  6 29  1  0
  5 30  1  1
 31 30  1  1
 31 32  1  0
 36 31  1  0
 32 33  1  0
 33 34  1  0
 34 35  1  0
 35 36  1  0
 35 37  1  1
 33 38  1  1
 34 39  1  1
  6 40  1  0
 36 41  1  6
 42 43  1  0
 47 42  1  0
 43 44  1  0
 44 45  1  0
 45 46  1  0
 46 47  1  0
 44 48  1  6
 45 49  1  1
 46 50  1  6
 47 51  1  6
 16 52  1  1
 13 53  1  1
 52 53  1  0
 42 39  1  1
 54 38  1  0
 55 54  1  1
 55 56  1  0
 60 55  1  0
 56 57  1  0
 57 58  1  0
 58 59  1  0
 59 60  1  0
 57 61  1  1
 61 62  1  0
 58 63  1  6
 59 64  1  1
 60 65  1  6
M  END
>  <MOLREGNO>
640966

>  <CHEMBLID>
CHEMBL1159427

>  <SYNONYMS>
Saikosaponin C

>  <MAX_PHASE>
0

>  <MOLWEIGHT>
927.12

>  <ALOGP>
.45

>  <PSA>
266.9

>  <HBA>
17

>  <HBD>
10

>  <RO5>
3

>  <RTB>
8

>  <RO3>
N

>  <ACD_MOST_APKA>
12.76

>  <ACD_MOST_BPKA>


>  <ACD_LOGP>
.92

>  <ACD_LOGD>
.92

>  <AROMATIC_RINGS>
0

>  <HEAVY_ATOMS>
65

>  <QED_WEIGHTED>
.12

>  <HBA_LIPINSKI>
17

>  <HBD_LIPINSKI>
10

>  <NUM_LIPINSKI_RO5_VIOLATIONS>
2

>  <MW_MONOISOTOPIC>
926.5239

>  <MOLECULAR_SPECIES>
NEUTRAL

>  <FULL_MOLFORMULA>
C48H78O17

$$$$

  SciTegic04191610272D

 58 65  0  0  0  0            999 V2000
   -5.1874   -0.3726    0.0000 O   0  0
   -7.5494   -1.9939    0.0000 O   0  0
   -7.5835   -4.6936    0.0000 O   0  0
   -5.2625   -6.0731    0.0000 O   0  0
   -3.9199   -2.6397    0.0000 O   0  0
   -1.6013   -4.3155    0.0000 O   0  0
   -5.2094   -1.8733    0.0000 C   0  0  2  0  0  0
   -6.5178   -2.6069    0.0000 C   0  0  1  0  0  0
   -6.5368   -4.1068    0.0000 C   0  0  2  0  0  0
   -5.2473   -4.8732    0.0000 C   0  0  1  0  0  0
   -3.9389   -4.1396    0.0000 C   0  0  1  0  0  0
   -2.6471   -4.9038    0.0000 C   0  0
    0.0095   -0.4512    0.0000 O   0  0
   -2.6098   -1.6112    0.0000 O   0  0
   -4.8825    2.4759    0.0000 O   0  0
   -1.2553    1.8175    0.0000 O   0  0
   -1.2794    0.3176    0.0000 C   0  0  2  0  0  0
   -2.5904   -0.4113    0.0000 C   0  0  1  0  0  0
   -3.8772    0.3595    0.0000 C   0  0  2  0  0  0
   -3.8531    1.8593    0.0000 C   0  0  1  0  0  0
   -2.5421    2.5883    0.0000 C   0  0  1  0  0  0
   -2.5228    3.7881    0.0000 C   0  0
    1.3200    1.7700    0.0000 C   0  0
    1.3200    0.2800    0.0000 C   0  0  1  0  0  0
    2.6600   -0.5000    0.0000 C   0  0  1  0  0  0
    2.6600    2.5600    0.0000 C   0  0
    4.0000    1.7900    0.0000 C   0  0  1  0  0  0
    4.0000    0.2500    0.0000 C   0  0  1  0  0  0
    5.3400   -0.5000    0.0000 C   0  0
    6.6800    0.2800    0.0000 C   0  0
    5.3400    2.5600    0.0000 C   0  0  2  0  0  0
    6.6800    1.7700    0.0000 C   0  0  2  0  0  0
    6.6800    4.8600    0.0000 C   0  0
    5.3400    4.0900    0.0000 C   0  0
    8.0200    4.0900    0.0000 C   0  0  1  0  0  0
    8.0200    2.5400    0.0000 C   0  0  1  0  0  0
    9.3600    1.7500    0.0000 C   0  0
   10.6800    2.5000    0.0000 C   0  0  2  0  0  0
    9.3600    4.8300    0.0000 C   0  0  1  0  0  0
   10.6800    4.0800    0.0000 C   0  0  2  0  0  0
   12.0200    4.8600    0.0000 C   0  0
   12.0200    6.3900    0.0000 C   0  0
   10.6800    7.1500    0.0000 C   0  0
    9.3600    6.3900    0.0000 C   0  0
    9.6248    7.7215    0.0000 C   0  0
   11.7314    7.7284    0.0000 C   0  0
    4.0000    2.7900    0.0000 C   0  0
    7.5455    1.2691    0.0000 C   0  0
    4.0000   -0.7500    0.0000 H   0  0
    4.4745    3.0609    0.0000 H   0  0
    8.0144    1.5400    0.0000 C   0  0
    8.4988    5.3382    0.0000 H   0  0
   11.7172    1.8964    0.0000 O   0  0
    9.5200    3.6900    0.0000 O   0  0
   12.1700    3.6900    0.0000 C   0  0
    3.5341   -0.9857    0.0000 C   0  0
    1.3541   -1.1967    0.0000 C   0  0
    0.4922   -0.6898    0.0000 O   0  0
  6 12  1  0
 11  5  1  0
  5  7  1  0
  7  8  1  0
  8  9  1  0
  9 10  1  0
 10 11  1  0
 11 12  1  6
  7  1  1  6
  8  2  1  1
  9  3  1  6
 10  4  1  1
 21 16  1  0
 16 17  1  0
 17 18  1  0
 18 19  1  0
 19 20  1  0
 20 21  1  0
 21 22  1  1
 17 13  1  1
 18 14  1  6
 19  1  1  1
 20 15  1  6
 23 24  1  0
 23 26  1  0
 24 25  1  0
 25 28  1  0
 27 26  1  0
 27 28  1  0
 27 31  1  0
 28 29  1  0
 29 30  1  0
 30 32  1  0
 31 32  1  0
 31 34  1  0
 32 36  1  0
 35 33  1  0
 33 34  2  0
 35 36  1  0
 35 39  1  0
 36 37  1  0
 37 38  1  0
 38 40  1  0
 39 40  1  0
 39 44  1  0
 40 41  1  0
 41 42  1  0
 42 43  1  0
 43 44  1  0
 43 45  1  0
 43 46  1  0
 27 47  1  1
 32 48  1  1
 28 49  1  6
 31 50  1  6
 36 51  1  6
 39 52  1  1
 38 53  1  6
 35 54  1  1
 40 55  1  1
 54 55  1  0
 25 56  1  1
 25 57  1  0
 57 58  1  0
 24 13  1  1
M  END
>  <MOLREGNO>
1949316

>  <CHEMBLID>
CHEMBL3586100

>  <SYNONYMS>


>  <MAX_PHASE>
0

>  <MOLWEIGHT>
780.98

>  <ALOGP>
1.11

>  <PSA>
207.98

>  <HBA>
13

>  <HBD>
8

>  <RO5>
3

>  <RTB>
6

>  <RO3>
N

>  <ACD_MOST_APKA>
12.83

>  <ACD_MOST_BPKA>


>  <ACD_LOGP>
3.76

>  <ACD_LOGD>
3.76

>  <AROMATIC_RINGS>
0

>  <HEAVY_ATOMS>
55

>  <QED_WEIGHTED>
.14

>  <HBA_LIPINSKI>
13

>  <HBD_LIPINSKI>
8

>  <NUM_LIPINSKI_RO5_VIOLATIONS>
2

>  <MW_MONOISOTOPIC>
780.466

>  <MOLECULAR_SPECIES>
NEUTRAL

>  <FULL_MOLFORMULA>
C42H68O13

$$$$

  CDK    9/16/09,9:20

 72 78  0  0  0  0  0  0  0  0999 V2000
   -1.5000   -5.1198    0.0000 C   0  0  0  0  0  0  0  0  0  0  0  0
   -2.2179   -5.5287    0.0000 O   0  0  0  0  0  0  0  0  0  0  0  0
   -2.2258   -6.3541    0.0000 C   0  0  0  0  0  0  0  0  0  0  0  0
   -1.5128   -6.7746    0.0000 C   0  0  0  0  0  0  0  0  0  0  0  0
   -0.7945   -6.3681    0.0000 C   0  0  0  0  0  0  0  0  0  0  0  0
   -0.7854   -5.5390    0.0000 C   0  0  0  0  0  0  0  0  0  0  0  0
   -0.0655   -5.1298    0.0000 O   0  0  0  0  0  0  0  0  0  0  0  0
   -2.9417   -6.7620    0.0000 C   0  0  0  0  0  0  0  0  0  0  0  0
   -1.4948   -4.2959    0.0000 O   0  0  0  0  0  0  0  0  0  0  0  0
   -3.6211   -2.2303    0.0000 C   0  0  0  0  0  0  0  0  0  0  0  0
   -3.6211   -3.0583    0.0000 C   0  0  0  0  0  0  0  0  0  0  0  0
   -2.9099   -3.4682    0.0000 C   0  0  0  0  0  0  0  0  0  0  0  0
   -2.9099   -1.8119    0.0000 C   0  0  0  0  0  0  0  0  0  0  0  0
   -2.1945   -2.2303    0.0000 C   0  0  0  0  0  0  0  0  0  0  0  0
   -2.1998   -3.0583    0.0000 C   0  0  0  0  0  0  0  0  0  0  0  0
   -1.4893   -3.4714    0.0000 C   0  0  0  0  0  0  0  0  0  0  0  0
   -0.7708   -3.0633    0.0000 C   0  0  0  0  0  0  0  0  0  0  0  0
   -1.4828   -1.8194    0.0000 C   0  0  0  0  0  0  0  0  0  0  0  0
   -0.7696   -2.2426    0.0000 C   0  0  0  0  0  0  0  0  0  0  0  0
   -0.7521   -0.5825    0.0000 C   0  0  0  0  0  0  0  0  0  0  0  0
   -1.4747   -0.9884    0.0000 C   0  0  0  0  0  0  0  0  0  0  0  0
   -0.0348   -1.0056    0.0000 C   0  0  0  0  0  0  0  0  0  0  0  0
   -0.0467   -1.8361    0.0000 C   0  0  0  0  0  0  0  0  0  0  0  0
    0.7328   -2.1046    0.0000 C   0  0  0  0  0  0  0  0  0  0  0  0
    1.2306   -1.4418    0.0000 C   0  0  0  0  0  0  0  0  0  0  0  0
    0.7573   -0.7634    0.0000 C   0  0  0  0  0  0  0  0  0  0  0  0
   -4.3394   -3.4719    0.0000 O   0  0  0  0  0  0  0  0  0  0  0  0
   -3.3296   -4.1802    0.0000 C   0  0  0  0  0  0  0  0  0  0  0  0
   -2.5015   -4.1802    0.0000 C   0  0  0  0  0  0  0  0  0  0  0  0
   -2.2015   -1.4063    0.0000 C   0  0  0  0  0  0  0  0  0  0  0  0
   -0.7775   -1.4147    0.0000 C   0  0  0  0  0  0  0  0  0  0  0  0
    1.0251    0.0180    0.0000 C   0  0  0  0  0  0  0  0  0  0  0  0
   -0.0551   -2.6632    0.0000 C   0  0  0  0  0  0  0  0  0  0  0  0
    1.5813   -0.7615    0.0000 H   0  0  0  0  0  0  0  0  0  0  0  0
   -2.2055   -3.8784    0.0000 H   0  0  0  0  0  0  0  0  0  0  0  0
   -1.4898   -2.6425    0.0000 H   0  0  0  0  0  0  0  0  0  0  0  0
   -0.0416   -0.1790    0.0000 H   0  0  0  0  0  0  0  0  0  0  0  0
    1.2359    0.8198    0.0000 O   0  0  0  0  0  0  0  0  0  0  0  0
    1.8138   -0.2205    0.0000 C   0  0  0  0  0  0  0  0  0  0  0  0
    2.0016   -1.0228    0.0000 C   0  0  0  0  0  0  0  0  0  0  0  0
    0.2354    0.2532    0.0000 C   0  0  0  0  0  0  0  0  0  0  0  0
    2.7903   -1.2612    0.0000 C   0  0  0  0  0  0  0  0  0  0  0  0
    2.9781   -2.0635    0.0000 C   0  0  0  0  0  0  0  0  0  0  0  0
    3.7668   -2.3019    0.0000 C   0  0  0  0  0  0  0  0  0  0  0  0
    2.3773   -2.6273    0.0000 C   0  0  0  0  0  0  0  0  0  0  0  0
   -2.2180   -4.7065    0.0000 H   0  0  0  0  0  0  0  0  0  0  0  0
    0.6453   -5.5466    0.0000 C   0  0  0  0  0  0  0  0  0  0  0  0
    0.6375   -6.3675    0.0000 O   0  0  0  0  0  0  0  0  0  0  0  0
    1.3442   -6.7842    0.0000 C   0  0  0  0  0  0  0  0  0  0  0  0
    2.0629   -6.3805    0.0000 C   0  0  0  0  0  0  0  0  0  0  0  0
    2.0705   -5.5557    0.0000 C   0  0  0  0  0  0  0  0  0  0  0  0
    1.3593   -5.1344    0.0000 C   0  0  0  0  0  0  0  0  0  0  0  0
    1.3639   -4.3104    0.0000 O   0  0  0  0  0  0  0  0  0  0  0  0
    2.7882   -5.1510    0.0000 O   0  0  0  0  0  0  0  0  0  0  0  0
    2.7721   -6.8000    0.0000 O   0  0  0  0  0  0  0  0  0  0  0  0
   -0.0707   -5.9508    0.0000 H   0  0  0  0  0  0  0  0  0  0  0  0
    2.0308    1.0368    0.0000 C   0  0  0  0  0  0  0  0  0  0  0  0
    2.6158    0.4543    0.0000 C   0  0  0  0  0  0  0  0  0  0  0  0
    3.4078    0.6684    0.0000 C   0  0  0  0  0  0  0  0  0  0  0  0
    3.6215    1.4644    0.0000 C   0  0  0  0  0  0  0  0  0  0  0  0
    3.0369    2.0465    0.0000 C   0  0  0  0  0  0  0  0  0  0  0  0
    2.2386    1.8324    0.0000 O   0  0  0  0  0  0  0  0  0  0  0  0
    2.4044   -0.3421    0.0000 O   0  0  0  0  0  0  0  0  0  0  0  0
    3.9908    0.0863    0.0000 O   0  0  0  0  0  0  0  0  0  0  0  0
    4.4172    1.6785    0.0000 O   0  0  0  0  0  0  0  0  0  0  0  0
    3.2492    2.8426    0.0000 C   0  0  0  0  0  0  0  0  0  0  0  0
    4.0448    3.0568    0.0000 O   0  0  0  0  0  0  0  0  0  0  0  0
    1.4440    1.6271    0.0000 H   0  0  0  0  0  0  0  0  0  0  0  0
   -0.0808   -6.7865    0.0000 O   0  0  0  0  0  0  0  0  0  0  0  0
   -1.5190   -7.6034    0.0000 O   0  0  0  0  0  0  0  0  0  0  0  0
   -3.6572   -6.3396    0.0000 O   0  0  0  0  0  0  0  0  0  0  0  0
   -0.7410    0.2414    0.0000 O   0  0  0  0  0  0  0  0  0  0  0  0
 26 32  1  0  0  0  0 
 23 33  1  6  0  0  0 
 26 34  1  6  0  0  0 
  1  9  1  0  0  0  0 
 15 35  1  6  0  0  0 
  1  2  1  0  0  0  0 
 18 36  1  6  0  0  0 
  1  6  1  0  0  0  0 
 22 37  1  1  0  0  0 
  2  3  1  0  0  0  0 
 32 38  1  1  0  0  0 
  3  4  1  0  0  0  0 
 32 39  1  0  0  0  0 
  4  5  1  0  0  0  0 
 39 40  1  0  0  0  0 
  5  6  1  0  0  0  0 
 32 41  1  0  0  0  0 
  6  7  1  6  0  0  0 
 40 42  1  0  0  0  0 
 42 43  2  0  0  0  0 
 43 44  1  0  0  0  0 
  3  8  1  1  0  0  0 
 43 45  1  0  0  0  0 
 16  9  1  6  0  0  0 
  1 46  1  6  0  0  0 
 10 11  1  0  0  0  0 
 47  7  1  0  0  0  0 
 47 48  1  0  0  0  0 
 10 13  1  0  0  0  0 
 11 12  1  0  0  0  0 
 12 15  1  0  0  0  0 
 14 13  1  0  0  0  0 
 14 15  1  0  0  0  0 
 47 52  1  0  0  0  0 
 48 49  1  0  0  0  0 
 49 50  1  0  0  0  0 
 50 51  1  0  0  0  0 
 51 52  1  0  0  0  0 
 14 18  1  0  0  0  0 
 52 53  1  6  0  0  0 
 15 16  1  0  0  0  0 
 51 54  1  1  0  0  0 
 16 17  1  0  0  0  0 
 50 55  1  6  0  0  0 
 17 19  1  0  0  0  0 
 47 56  1  6  0  0  0 
 18 19  1  0  0  0  0 
 57 38  1  0  0  0  0 
 57 58  1  0  0  0  0 
 18 21  1  0  0  0  0 
 19 23  1  0  0  0  0 
 22 20  1  0  0  0  0 
 20 21  1  0  0  0  0 
 22 23  1  0  0  0  0 
 57 62  1  0  0  0  0 
 58 59  1  0  0  0  0 
 59 60  1  0  0  0  0 
 60 61  1  0  0  0  0 
 61 62  1  0  0  0  0 
 23 24  1  0  0  0  0 
 58 63  1  1  0  0  0 
 24 25  1  0  0  0  0 
 59 64  1  6  0  0  0 
 25 26  1  0  0  0  0 
 60 65  1  1  0  0  0 
 26 22  1  0  0  0  0 
 61 66  1  6  0  0  0 
 11 27  1  1  0  0  0 
 66 67  1  0  0  0  0 
 12 28  1  0  0  0  0 
 57 68  1  1  0  0  0 
 12 29  1  0  0  0  0 
 14 30  1  1  0  0  0 
 19 31  1  1  0  0  0 
  4 70  1  6  0  0  0 
  5 69  1  1  0  0  0 
  8 71  1  0  0  0  0 
 20 72  1  1  0  0  0 
M  END
>  <MOLREGNO>
505597

>  <CHEMBLID>
CHEMBL507115

>  <SYNONYMS>
Notoginsenoside-R1 | Notoginsenoside R1

>  <MAX_PHASE>
0

>  <MOLWEIGHT>
933.13

>  <ALOGP>
-.11

>  <PSA>
298.14

>  <HBA>
18

>  <HBD>
12

>  <RO5>
3

>  <RTB>
12

>  <RO3>
N

>  <ACD_MOST_APKA>
12.85

>  <ACD_MOST_BPKA>


>  <ACD_LOGP>
1.35

>  <ACD_LOGD>
1.35

>  <AROMATIC_RINGS>
0

>  <HEAVY_ATOMS>
65

>  <QED_WEIGHTED>
.09

>  <HBA_LIPINSKI>
18

>  <HBD_LIPINSKI>
12

>  <NUM_LIPINSKI_RO5_VIOLATIONS>
2

>  <MW_MONOISOTOPIC>
932.5345

>  <MOLECULAR_SPECIES>
NEUTRAL

>  <FULL_MOLFORMULA>
C47H80O18

$$$$

  CDK    9/16/09,9:49

 37 40  0  0  0  0  0  0  0  0999 V2000
    0.5039   -9.5202    0.0000 C   0  0  0  0  0  0  0  0  0  0  0  0
    0.5039  -10.3459    0.0000 C   0  0  0  0  0  0  0  0  0  0  0  0
    1.2171  -10.7525    0.0000 C   0  0  0  0  0  0  0  0  0  0  0  0
    1.2171   -9.1011    0.0000 C   0  0  0  0  0  0  0  0  0  0  0  0
    1.9302   -9.5202    0.0000 C   0  0  0  0  0  0  0  0  0  0  0  0
    1.9313  -10.3459    0.0000 C   0  0  0  0  0  0  0  0  0  0  0  0
    2.6435  -10.7534    0.0000 C   0  0  0  0  0  0  0  0  0  0  0  0
    3.3591  -10.3440    0.0000 C   0  0  0  0  0  0  0  0  0  0  0  0
    2.6414   -9.1020    0.0000 C   0  0  0  0  0  0  0  0  0  0  0  0
    3.3539   -9.5207    0.0000 C   0  0  0  0  0  0  0  0  0  0  0  0
    3.3616   -7.8740    0.0000 C   0  0  0  0  0  0  0  0  0  0  0  0
    2.6422   -8.2796    0.0000 C   0  0  0  0  0  0  0  0  0  0  0  0
    4.0741   -8.2884    0.0000 C   0  0  0  0  0  0  0  0  0  0  0  0
    4.0704   -9.1090    0.0000 C   0  0  0  0  0  0  0  0  0  0  0  0
    4.8499   -9.3689    0.0000 C   0  0  0  0  0  0  0  0  0  0  0  0
    5.3328   -8.7063    0.0000 C   0  0  0  0  0  0  0  0  0  0  0  0
    4.8558   -8.0396    0.0000 C   0  0  0  0  0  0  0  0  0  0  0  0
    4.8812   -7.2132    0.0000 C   0  0  0  0  0  0  0  0  0  0  0  0
    5.6092   -6.8205    0.0000 C   0  0  0  0  0  0  0  0  0  0  0  0
    6.3077   -7.2572    0.0000 C   0  0  0  0  0  0  0  0  0  0  0  0
    7.0356   -6.8687    0.0000 C   0  0  0  0  0  0  0  0  0  0  0  0
    7.7382   -7.2999    0.0000 C   0  0  0  0  0  0  0  0  0  0  0  0
    7.0105   -6.0361    0.0000 O   0  0  0  0  0  0  0  0  0  0  0  0
    6.3226   -8.0811    0.0000 O   0  0  0  0  0  0  0  0  0  0  0  0
    4.1634   -6.7984    0.0000 C   0  0  0  0  0  0  0  0  0  0  0  0
    4.0639   -9.9309    0.0000 C   0  0  0  0  0  0  0  0  0  0  0  0
    2.6365   -9.9267    0.0000 H   0  0  0  0  0  0  0  0  0  0  0  0
    1.9229   -8.6945    0.0000 C   0  0  0  0  0  0  0  0  0  0  0  0
    3.3460   -8.6945    0.0000 C   0  0  0  0  0  0  0  0  0  0  0  0
    1.9270  -11.1674    0.0000 H   0  0  0  0  0  0  0  0  0  0  0  0
    0.6242  -11.3375    0.0000 C   0  0  0  0  0  0  0  0  0  0  0  0
    1.4250  -11.5491    0.0000 C   0  0  0  0  0  0  0  0  0  0  0  0
   -0.2112  -10.7576    0.0000 O   0  0  0  0  0  0  0  0  0  0  0  0
    1.9331   -7.8648    0.0000 O   0  0  0  0  0  0  0  0  0  0  0  0
    8.4500   -7.7083    0.0000 O   0  0  0  0  0  0  0  0  0  0  0  0
    7.3171   -8.0094    0.0000 C   0  0  0  0  0  0  0  0  0  0  0  0
    8.1627   -6.5925    0.0000 C   0  0  0  0  0  0  0  0  0  0  0  0
 17 18  1  0  0  0  0 
  8 10  1  0  0  0  0 
 18 19  1  0  0  0  0 
  9 10  1  0  0  0  0 
 19 20  1  0  0  0  0 
  3  6  1  0  0  0  0 
 20 21  1  0  0  0  0 
  5  4  1  0  0  0  0 
 21 22  1  0  0  0  0 
  5  6  1  0  0  0  0 
  9 12  1  0  0  0  0 
 10 14  1  0  0  0  0 
 21 23  1  1  0  0  0 
 13 11  1  0  0  0  0 
 20 24  1  1  0  0  0 
 11 12  1  0  0  0  0 
 18 25  1  6  0  0  0 
 13 14  1  0  0  0  0 
 14 26  1  1  0  0  0 
  1  2  1  0  0  0  0 
  9 27  1  1  0  0  0 
  1  4  1  0  0  0  0 
  5 28  1  1  0  0  0 
  2  3  1  0  0  0  0 
 10 29  1  6  0  0  0 
  5  9  1  0  0  0  0 
  6 30  1  6  0  0  0 
  6  7  1  0  0  0  0 
  3 31  1  0  0  0  0 
 14 15  1  0  0  0  0 
  3 32  1  0  0  0  0 
 15 16  1  0  0  0  0 
  2 33  2  0  0  0  0 
 16 17  1  0  0  0  0 
 12 34  1  1  0  0  0 
 22 35  1  0  0  0  0 
 17 13  2  0  0  0  0 
 22 36  1  0  0  0  0 
  7  8  1  0  0  0  0 
 22 37  1  0  0  0  0 
M  END
>  <MOLREGNO>
488336

>  <CHEMBLID>
CHEMBL467814

>  <SYNONYMS>
ALISOL A

>  <MAX_PHASE>
0

>  <MOLWEIGHT>
490.72

>  <ALOGP>
4.02

>  <PSA>
97.99

>  <HBA>
5

>  <HBD>
4

>  <RO5>
0

>  <RTB>
5

>  <RO3>
N

>  <ACD_MOST_APKA>


>  <ACD_MOST_BPKA>


>  <ACD_LOGP>
4.22

>  <ACD_LOGD>
4.22

>  <AROMATIC_RINGS>
0

>  <HEAVY_ATOMS>
35

>  <QED_WEIGHTED>
.44

>  <HBA_LIPINSKI>
5

>  <HBD_LIPINSKI>
4

>  <NUM_LIPINSKI_RO5_VIOLATIONS>
0

>  <MW_MONOISOTOPIC>
490.3658

>  <MOLECULAR_SPECIES>
NEUTRAL

>  <FULL_MOLFORMULA>
C30H50O5

$$$$

  SciTegic09171211542D

 37 41  0  0  0  0            999 V2000
    0.6042   -7.4667    0.0000 C   0  0
    0.6042   -8.2917    0.0000 C   0  0
    1.3162   -8.7000    0.0000 C   0  0
    1.3162   -7.0500    0.0000 C   0  0
    2.0282   -7.4667    0.0000 C   0  0  1  0  0  0
    2.0293   -8.2917    0.0000 C   0  0  1  0  0  0
    2.7403   -8.7010    0.0000 C   0  0
    3.4549   -8.2898    0.0000 C   0  0
    2.7382   -7.0510    0.0000 C   0  0  1  0  0  0
    3.4557   -7.4655    0.0000 C   0  0  1  0  0  0
    3.4545   -5.8111    0.0000 C   0  0
    2.7345   -6.2246    0.0000 C   0  0  2  0  0  0
    4.1720   -6.2256    0.0000 C   0  0
    4.1689   -7.0551    0.0000 C   0  0  2  0  0  0
    4.9568   -7.3144    0.0000 C   0  0
    5.4470   -6.6451    0.0000 C   0  0
    4.9619   -5.9723    0.0000 C   0  0
    5.2197   -5.1887    0.0000 C   0  0  1  0  0  0
    6.0274   -5.0202    0.0000 C   0  0
    6.5771   -5.6353    0.0000 C   0  0  1  0  0  0
    7.3847   -5.4668    0.0000 C   0  0  2  0  0  0
    7.9344   -6.0820    0.0000 C   0  0
    8.7420   -5.9135    0.0000 C   0  0
    7.6765   -6.8656    0.0000 C   0  0
    4.6700   -4.5735    0.0000 C   0  0
    4.1625   -7.8792    0.0000 C   0  0
    2.7333   -7.8750    0.0000 H   0  0
    2.0250   -9.1125    0.0000 H   0  0
    2.0208   -6.6417    0.0000 C   0  0
    3.4500   -6.6375    0.0000 C   0  0
    0.8958   -9.4125    0.0000 C   0  0
    1.5250   -9.4958    0.0000 C   0  0
   -0.1097   -8.7052    0.0000 O   0  0
    8.1792   -5.2500    0.0000 O   0  0
    2.0195   -5.8129    0.0000 O   0  0
    6.3192   -6.4190    0.0000 O   0  0
    7.3792   -4.6417    0.0000 H   0  0
 16 17  1  0
 17 13  2  0
  7  8  1  0
 17 18  1  0
  8 10  1  0
 18 19  1  0
  9 10  1  0
 19 20  1  0
  3  6  1  0
 20 21  1  0
  5  4  1  0
 21 22  1  0
  5  6  1  0
 22 23  1  0
 22 24  1  0
  9 12  1  0
 18 25  1  6
 10 14  1  0
 14 26  1  1
 13 11  1  0
  9 27  1  1
 11 12  1  0
  6 28  1  6
 13 14  1  0
  5 29  1  1
  1  2  1  0
 10 30  1  6
  1  4  1  0
  3 31  1  0
  2  3  1  0
  3 32  1  0
  5  9  1  0
  2 33  2  0
  6  7  1  0
 21 34  1  0
 34 22  1  0
 14 15  1  0
 12 35  1  1
 15 16  1  0
 20 36  1  1
 21 37  1  6
M  END
>  <MOLREGNO>
1355486

>  <CHEMBLID>
CHEMBL2059712

>  <SYNONYMS>
Alisol B

>  <MAX_PHASE>
0

>  <MOLWEIGHT>
472.7

>  <ALOGP>
4.78

>  <PSA>
70.06

>  <HBA>
4

>  <HBD>
2

>  <RO5>
0

>  <RTB>
4

>  <RO3>
N

>  <ACD_MOST_APKA>


>  <ACD_MOST_BPKA>
1.21

>  <ACD_LOGP>
5.34

>  <ACD_LOGD>
5.34

>  <AROMATIC_RINGS>
0

>  <HEAVY_ATOMS>
34

>  <QED_WEIGHTED>
.58

>  <HBA_LIPINSKI>
4

>  <HBD_LIPINSKI>
2

>  <NUM_LIPINSKI_RO5_VIOLATIONS>
0

>  <MW_MONOISOTOPIC>
472.3553

>  <MOLECULAR_SPECIES>
NEUTRAL

>  <FULL_MOLFORMULA>
C30H48O4

$$$$

  SciTegic05061409282D

 40 43  0  0  0  0            999 V2000
    2.4413  -11.6837    0.0000 C   0  0
    2.0295  -12.3987    0.0000 C   0  0
    2.8545  -12.3978    0.0000 C   0  0
    1.7292  -10.4504    0.0000 C   0  0
    1.7292  -11.2755    0.0000 C   0  0
    2.4413  -10.0338    0.0000 C   0  0
    3.1534  -10.4504    0.0000 C   0  0  1  0  0  0
    3.1498  -11.2755    0.0000 C   0  0  1  0  0  0
    3.8586  -11.6887    0.0000 C   0  0
    4.5755  -11.2815    0.0000 C   0  0
    3.8656  -10.0386    0.0000 C   0  0  1  0  0  0
    4.5751  -10.4590    0.0000 C   0  0  1  0  0  0
    4.5919   -8.8128    0.0000 C   0  0
    3.8710   -9.2163    0.0000 C   0  0  2  0  0  0
    5.3014   -9.2331    0.0000 C   0  0
    5.2925  -10.0547    0.0000 C   0  0  2  0  0  0
    6.0711  -10.3171    0.0000 C   0  0
    6.5613   -9.6576    0.0000 C   0  0
    6.0847   -8.9880    0.0000 C   0  0
    3.1418  -12.0963    0.0000 H   0  0
    4.5668   -9.6338    0.0000 C   0  0
    1.0153  -11.6890    0.0000 O   0  0
    3.1460   -9.6254    0.0000 C   0  0
    3.8585  -10.8629    0.0000 H   0  0
    3.1605   -8.7967    0.0000 O   0  0
    5.2878  -10.8796    0.0000 C   0  0
    6.4871   -8.2677    0.0000 C   0  0  1  0  0  0
    7.3120   -8.2560    0.0000 C   0  0
    7.7347   -8.9645    0.0000 C   0  0  2  0  0  0
    6.0644   -7.5591    0.0000 C   0  0
    7.3324   -9.6848    0.0000 O   0  0
    8.5597   -8.9528    0.0000 C   0  0  2  0  0  0
    8.9823   -9.6613    0.0000 C   0  0
    8.9620   -8.2325    0.0000 O   0  0
    9.7869   -8.2207    0.0000 C   0  0
   10.1891   -7.5005    0.0000 O   0  0
   10.2095   -8.9294    0.0000 C   0  0
    8.5799  -10.3817    0.0000 C   0  0
    9.8072   -9.6496    0.0000 C   0  0
    9.4463  -10.3398    0.0000 O   0  0
  2  1  1  0
  1  3  1  0
  4  5  1  0
  4  6  1  0
  5  1  1  0
  1  8  1  0
  7  6  1  0
  7  8  1  0
  7 11  1  0
  8  9  1  0
  9 10  1  0
 10 12  1  0
 11 12  1  0
 11 14  1  0
 12 16  1  0
 15 13  1  0
 13 14  1  0
 15 16  1  0
 16 17  1  0
 17 18  1  0
 18 19  1  0
 19 15  2  0
  8 20  1  6
 12 21  1  6
  5 22  2  0
  7 23  1  1
 11 24  1  1
 14 25  1  1
 16 26  1  1
 19 27  1  0
 27 28  1  0
 28 29  1  0
 27 30  1  6
 29 31  1  1
 29 32  1  0
 32 33  1  0
 32 34  1  1
 34 35  1  0
 35 36  2  0
 35 37  1  0
 33 38  1  0
 33 39  1  0
 33 40  1  0
M  END
>  <MOLREGNO>
1620910

>  <CHEMBLID>
CHEMBL3121587

>  <SYNONYMS>


>  <MAX_PHASE>
0

>  <MOLWEIGHT>
532.75

>  <ALOGP>
4.4

>  <PSA>
104.06

>  <HBA>
6

>  <HBD>
3

>  <RO5>
1

>  <RTB>
7

>  <RO3>
N

>  <ACD_MOST_APKA>


>  <ACD_MOST_BPKA>


>  <ACD_LOGP>
6.9

>  <ACD_LOGD>
6.9

>  <AROMATIC_RINGS>
0

>  <HEAVY_ATOMS>
38

>  <QED_WEIGHTED>
.33

>  <HBA_LIPINSKI>
6

>  <HBD_LIPINSKI>
3

>  <NUM_LIPINSKI_RO5_VIOLATIONS>
0

>  <MW_MONOISOTOPIC>
532.3764

>  <MOLECULAR_SPECIES>
NEUTRAL

>  <FULL_MOLFORMULA>
C32H52O6

$$$$

  SciTegic08101216542D

 39 43  0  0  0  0            999 V2000
   -0.3462   -3.5652    0.0000 C   0  0  1  0  0  0
   -1.0607   -3.1527    0.0000 C   0  0
   -1.7752   -3.5652    0.0000 C   0  0
   -1.7752   -4.3902    0.0000 C   0  0
   -1.0607   -4.8027    0.0000 C   0  0
   -0.3462   -4.3902    0.0000 C   0  0
    0.3683   -3.1527    0.0000 C   0  0  1  0  0  0
    1.0827   -3.5652    0.0000 C   0  0  2  0  0  0
    1.0827   -4.3902    0.0000 C   0  0
    0.3682   -4.8027    0.0000 C   0  0
    0.3682   -2.3276    0.0000 C   0  0  2  0  0  0
    1.0827   -1.9151    0.0000 C   0  0
    1.7972   -2.3276    0.0000 C   0  0
    1.7972   -3.1526    0.0000 C   0  0  2  0  0  0
    2.5818   -3.4075    0.0000 C   0  0
    3.0667   -2.7401    0.0000 C   0  0
    2.5818   -2.0727    0.0000 C   0  0
    2.8367   -1.2881    0.0000 C   0  0  1  0  0  0
    2.2847   -0.6750    0.0000 C   0  0
    3.6437   -1.1165    0.0000 C   0  0
    2.5397    0.1097    0.0000 C   0  0  1  0  0  0
    2.7532    0.9065    0.0000 C   0  0
    3.3307   -0.1247    0.0000 O   0  0
    1.7486    0.3440    0.0000 C   0  0
    3.5501    1.1201    0.0000 C   0  0
    3.7636    1.9170    0.0000 O   0  0
    4.1334    0.5367    0.0000 O   0  0
    1.1807    0.9424    0.0000 C   0  0
    0.9464    0.1514    0.0000 O   0  0
    0.5974    1.5258    0.0000 C   0  0
    1.3942    1.7393    0.0000 C   0  0
    1.7972   -3.9776    0.0000 C   0  0
    1.0827   -2.7402    0.0000 H   0  0
    0.3683   -3.9777    0.0000 H   0  0
   -0.3462   -2.7402    0.0000 C   0  0
   -0.3462   -1.9152    0.0000 O   0  0
   -1.4732   -5.5171    0.0000 C   0  0
   -0.4774   -5.3860    0.0000 C   0  0
   -2.4897   -4.8027    0.0000 O   0  0
  1  2  1  0
  2  3  1  0
  3  4  1  0
  4  5  1  0
  5  6  1  0
 10  6  1  0
  6  1  1  0
  1  7  1  0
  8  9  1  0
  9 10  1  0
  7 11  1  0
  8  7  1  0
 14  8  1  0
 11 12  1  0
 12 13  1  0
 13 17  2  0
 13 14  1  0
 14 15  1  0
 15 16  1  0
 16 17  1  0
 17 18  1  0
 18 19  1  0
 18 20  1  1
 19 21  1  0
 21 22  1  0
 21 23  1  6
 21 24  1  0
 22 25  1  0
 25 26  2  0
 25 27  1  0
 24 28  1  0
 29 24  1  0
 28 29  1  0
 28 30  1  0
 28 31  1  0
 14 32  1  1
  8 33  1  6
  7 34  1  1
  1 35  1  1
 11 36  1  1
  5 37  1  0
  5 38  1  0
  4 39  2  0
M  END
>  <MOLREGNO>
1362440

>  <CHEMBLID>
CHEMBL2074634

>  <SYNONYMS>


>  <MAX_PHASE>
0

>  <MOLWEIGHT>
516.71

>  <ALOGP>
4.16

>  <PSA>
107.36

>  <HBA>
6

>  <HBD>
3

>  <RO5>
1

>  <RTB>
6

>  <RO3>
N

>  <ACD_MOST_APKA>
4.18

>  <ACD_MOST_BPKA>


>  <ACD_LOGP>
4.62

>  <ACD_LOGD>
1.45

>  <AROMATIC_RINGS>
0

>  <HEAVY_ATOMS>
37

>  <QED_WEIGHTED>
.46

>  <HBA_LIPINSKI>
6

>  <HBD_LIPINSKI>
3

>  <NUM_LIPINSKI_RO5_VIOLATIONS>
0

>  <MW_MONOISOTOPIC>
516.3451

>  <MOLECULAR_SPECIES>
ACID

>  <FULL_MOLFORMULA>
C31H48O6

$$$$

  SciTegic05061409282D

 39 43  0  0  0  0            999 V2000
    3.0629   -8.3769    0.0000 C   0  0
    3.4748   -7.6616    0.0000 C   0  0
    3.8883   -8.3759    0.0000 C   0  0
    2.7624   -6.4276    0.0000 C   0  0
    2.7624   -7.2530    0.0000 C   0  0
    3.4748   -6.0107    0.0000 C   0  0
    4.1872   -6.4276    0.0000 C   0  0  1  0  0  0
    4.1837   -7.2530    0.0000 C   0  0  1  0  0  0
    4.8929   -7.6665    0.0000 C   0  0
    5.6100   -7.2591    0.0000 C   0  0
    4.8998   -6.0157    0.0000 C   0  0  1  0  0  0
    5.6096   -6.4362    0.0000 C   0  0  1  0  0  0
    5.6266   -4.7891    0.0000 C   0  0
    4.9052   -5.1928    0.0000 C   0  0  2  0  0  0
    6.3364   -5.2096    0.0000 C   0  0
    6.3274   -6.0316    0.0000 C   0  0  2  0  0  0
    7.1064   -6.2941    0.0000 C   0  0
    4.1757   -8.0743    0.0000 H   0  0
    5.6014   -5.6105    0.0000 C   0  0
    2.0481   -7.6668    0.0000 O   0  0
    4.1798   -5.6021    0.0000 C   0  0
    4.8928   -6.8403    0.0000 H   0  0
    4.1945   -4.7731    0.0000 O   0  0
    6.3226   -6.8570    0.0000 C   0  0
    7.1201   -4.9645    0.0000 C   0  0
    7.5925   -5.6333    0.0000 C   0  0  1  0  0  0
    8.4035   -5.5591    0.0000 O   0  0
    8.7481   -4.8174    0.0000 C   0  0  1  0  0  0
    8.2760   -4.1481    0.0000 C   0  0
    7.4586   -4.2212    0.0000 C   0  0  1  0  0  0
    6.9815   -3.5477    0.0000 C   0  0
    9.5733   -4.8354    0.0000 C   0  0  2  0  0  0
    9.9704   -5.5590    0.0000 C   0  0
   10.0015   -4.1296    0.0000 O   0  0
    9.5422   -6.2646    0.0000 C   0  0
   10.7956   -5.5770    0.0000 C   0  0
   10.2968   -6.3099    0.0000 O   0  0
    7.9985   -6.3442    0.0000 H   0  0
    8.9487   -4.0685    0.0000 H   0  0
  1  2  1  0
  2  3  1  0
  4  5  1  0
  4  6  1  0
  5  2  1  0
  2  8  1  0
  7  6  1  0
  7  8  1  0
  7 11  1  0
  8  9  1  0
  9 10  1  0
 10 12  1  0
 11 12  1  0
 11 14  1  0
 12 16  1  0
 15 13  1  0
 13 14  1  0
 15 16  1  0
 16 17  1  0
 17 26  1  0
 25 15  2  0
  8 18  1  6
 12 19  1  6
  5 20  2  0
  7 21  1  1
 11 22  1  1
 14 23  1  1
 16 24  1  1
 25 26  1  0
 25 30  1  0
 26 27  1  0
 28 27  1  0
 28 29  1  0
 29 30  1  0
 30 31  1  6
 28 32  1  0
 32 33  1  0
 32 34  1  1
 33 35  1  0
 33 36  1  0
 33 37  1  0
 26 38  1  6
 28 39  1  6
M  END
>  <MOLREGNO>
1620912

>  <CHEMBLID>
CHEMBL3121589

>  <SYNONYMS>


>  <MAX_PHASE>
0

>  <MOLWEIGHT>
488.7

>  <ALOGP>
3.68

>  <PSA>
86.99

>  <HBA>
5

>  <HBD>
3

>  <RO5>
0

>  <RTB>
2

>  <RO3>
N

>  <ACD_MOST_APKA>
7.28

>  <ACD_MOST_BPKA>
1.94

>  <ACD_LOGP>
2.43

>  <ACD_LOGD>
1.91

>  <AROMATIC_RINGS>
0

>  <HEAVY_ATOMS>
35

>  <QED_WEIGHTED>
.52

>  <HBA_LIPINSKI>
5

>  <HBD_LIPINSKI>
3

>  <NUM_LIPINSKI_RO5_VIOLATIONS>
0

>  <MW_MONOISOTOPIC>
488.3502

>  <MOLECULAR_SPECIES>
NEUTRAL

>  <FULL_MOLFORMULA>
C30H48O5

$$$$

  SciTegic05061409282D

 42 46  0  0  0  0            999 V2000
    4.8653  -11.7952    0.0000 C   0  0
    5.2773  -11.0800    0.0000 C   0  0
    5.6908  -11.7944    0.0000 C   0  0
    4.5649   -9.8459    0.0000 C   0  0
    4.5649  -10.6714    0.0000 C   0  0
    5.2773   -9.4291    0.0000 C   0  0
    5.9896   -9.8459    0.0000 C   0  0  1  0  0  0
    5.9862  -10.6714    0.0000 C   0  0  1  0  0  0
    6.6953  -11.0848    0.0000 C   0  0
    7.4126  -10.6774    0.0000 C   0  0
    6.7024   -9.4340    0.0000 C   0  0  1  0  0  0
    7.4122   -9.8545    0.0000 C   0  0  1  0  0  0
    7.4290   -8.2075    0.0000 C   0  0
    6.7077   -8.6113    0.0000 C   0  0  2  0  0  0
    8.1388   -8.6280    0.0000 C   0  0
    8.1299   -9.4500    0.0000 C   0  0  2  0  0  0
    8.9089   -9.7125    0.0000 C   0  0
    5.9781  -11.4927    0.0000 H   0  0
    7.4039   -9.0289    0.0000 C   0  0
    3.8507  -11.0851    0.0000 O   0  0
    5.9823   -9.0205    0.0000 C   0  0
    6.6952  -10.2587    0.0000 H   0  0
    5.9969   -8.1915    0.0000 O   0  0
    8.1251  -10.2753    0.0000 C   0  0
    8.9225   -8.3828    0.0000 C   0  0
    9.3951   -9.0518    0.0000 C   0  0  1  0  0  0
   10.2061   -8.9775    0.0000 O   0  0
   10.5505   -8.2357    0.0000 C   0  0  1  0  0  0
   10.0784   -7.5665    0.0000 C   0  0
    9.2611   -7.6397    0.0000 C   0  0  1  0  0  0
    8.7840   -6.9662    0.0000 C   0  0
   11.3758   -8.2537    0.0000 C   0  0  2  0  0  0
   11.7728   -8.9774    0.0000 C   0  0
   11.8040   -7.5480    0.0000 O   0  0
   11.3446   -9.6831    0.0000 C   0  0
   12.5981   -8.9953    0.0000 C   0  0
   12.0994   -9.7283    0.0000 O   0  0
    9.8010   -9.7626    0.0000 H   0  0
   12.6292   -7.5660    0.0000 C   0  0
   13.0575   -6.8603    0.0000 O   0  0
   13.0262   -8.2897    0.0000 C   0  0
   10.7677   -7.4248    0.0000 H   0  0
  1  2  1  0
  2  3  1  0
  4  5  1  0
  4  6  1  0
  5  2  1  0
  2  8  1  0
  7  6  1  0
  7  8  1  0
  7 11  1  0
  8  9  1  0
  9 10  1  0
 10 12  1  0
 11 12  1  0
 11 14  1  0
 12 16  1  0
 15 13  1  0
 13 14  1  0
 15 16  1  0
 16 17  1  0
 17 26  1  0
 25 15  2  0
  8 18  1  6
 12 19  1  6
  5 20  2  0
  7 21  1  1
 11 22  1  1
 14 23  1  1
 16 24  1  1
 25 26  1  0
 25 30  1  0
 26 27  1  0
 28 27  1  0
 28 29  1  0
 29 30  1  0
 30 31  1  6
 28 32  1  0
 32 33  1  0
 32 34  1  1
 33 35  1  0
 33 36  1  0
 33 37  1  0
 26 38  1  6
 34 39  1  0
 39 40  2  0
 39 41  1  0
 28 42  1  6
M  END
>  <MOLREGNO>
1620913

>  <CHEMBLID>
CHEMBL3121590

>  <SYNONYMS>


>  <MAX_PHASE>
0

>  <MOLWEIGHT>
530.74

>  <ALOGP>
4.06

>  <PSA>
93.06

>  <HBA>
6

>  <HBD>
2

>  <RO5>
1

>  <RTB>
4

>  <RO3>
N

>  <ACD_MOST_APKA>


>  <ACD_MOST_BPKA>


>  <ACD_LOGP>
8.11

>  <ACD_LOGD>
8.11

>  <AROMATIC_RINGS>
0

>  <HEAVY_ATOMS>
38

>  <QED_WEIGHTED>
.42

>  <HBA_LIPINSKI>
6

>  <HBD_LIPINSKI>
2

>  <NUM_LIPINSKI_RO5_VIOLATIONS>
0

>  <MW_MONOISOTOPIC>
530.3607

>  <MOLECULAR_SPECIES>
NEUTRAL

>  <FULL_MOLFORMULA>
C32H50O6

$$$$

  SciTegic10311316282D

 19 20  0  0  0  0            999 V2000
    3.2530   -9.9438    0.0000 C   0  0
    2.7488   -9.3105    0.0000 C   0  0  1  0  0  0
    4.0488   -9.9438    0.0000 C   0  0
    2.8863   -8.5105    0.0000 C   0  0  2  0  0  0
    1.9405   -9.4188    0.0000 C   0  0  2  0  0  0
    3.6405   -8.1105    0.0000 C   0  0  1  0  0  0
    2.1738   -8.1355    0.0000 C   0  0
    1.5905   -8.6938    0.0000 C   0  0
    4.5780   -9.2688    0.0000 C   0  0
    4.3988   -8.4688    0.0000 C   0  0
    4.4030  -10.6855    0.0000 C   0  0
    1.1405   -9.6230    0.0000 O   0  0
    4.2155   -7.5230    0.0000 O   0  0
    1.9405  -10.2438    0.0000 C   0  0
    3.4155   -7.3105    0.0000 C   0  0
    3.9405  -11.3730    0.0000 C   0  0
    5.2280  -10.7480    0.0000 C   0  0
    2.5280  -10.1063    0.0000 H   0  0
    2.8780   -7.6855    0.0000 H   0  0
  2  1  1  0
  3  1  2  0
  4  2  1  0
  5  2  1  0
  6  4  1  0
  7  4  1  0
  8  5  1  0
  9  3  1  0
 10  9  1  0
 11  3  1  0
  5 12  1  1
  6 13  1  6
 14  5  1  0
 15  6  1  0
 16 11  1  0
 17 11  1  0
  2 18  1  1
  4 19  1  6
 10  6  1  0
  8  7  1  0
M  END
>  <MOLREGNO>
1563278

>  <CHEMBLID>
CHEMBL2386511

>  <SYNONYMS>


>  <MAX_PHASE>
0

>  <MOLWEIGHT>
238.37

>  <ALOGP>
2.56

>  <PSA>
40.46

>  <HBA>
2

>  <HBD>
2

>  <RO5>
0

>  <RTB>
1

>  <RO3>
Y

>  <ACD_MOST_APKA>
10.35

>  <ACD_MOST_BPKA>
8.54

>  <ACD_LOGP>
4.05

>  <ACD_LOGD>
2.89

>  <AROMATIC_RINGS>
0

>  <HEAVY_ATOMS>
17

>  <QED_WEIGHTED>
.69

>  <HBA_LIPINSKI>
2

>  <HBD_LIPINSKI>
2

>  <NUM_LIPINSKI_RO5_VIOLATIONS>
0

>  <MW_MONOISOTOPIC>
238.1933

>  <MOLECULAR_SPECIES>
BASE

>  <FULL_MOLFORMULA>
C15H26O2

$$$$

  SciTegic02101214292D

 91100  0  0  0  0            999 V2000
    5.0047   -3.0430    0.0000 O   0  0
    4.2891   -3.4554    0.0000 C   0  0  1  0  0  0
    4.2891   -4.2801    0.0000 C   0  0  2  0  0  0
    5.0047   -4.6924    0.0000 O   0  0
    3.5735   -4.6924    0.0000 C   0  0  2  0  0  0
    3.5735   -5.5171    0.0000 O   0  0
    2.8620   -4.2801    0.0000 C   0  0  1  0  0  0
    2.1464   -4.6924    0.0000 O   0  0
    2.8620   -3.4554    0.0000 C   0  0  1  0  0  0
    3.5735   -3.0430    0.0000 O   0  0
    2.1464   -3.0430    0.0000 C   0  0
    4.9856    0.2516    0.0000 O   0  0
    4.9933   -0.5731    0.0000 C   0  0  2  0  0  0
    4.2782   -0.9876    0.0000 O   0  0
    4.2839   -1.8087    0.0000 C   0  0  1  0  0  0
    5.0001   -2.2182    0.0000 C   0  0  2  0  0  0
    5.7123   -1.8004    0.0000 C   0  0  1  0  0  0
    5.7082   -0.9731    0.0000 C   0  0  1  0  0  0
    3.5720   -2.2250    0.0000 C   0  0
    2.8555   -1.8167    0.0000 O   0  0
    6.4288   -2.2085    0.0000 O   0  0
    6.4185   -0.5543    0.0000 O   0  0
    4.2847    3.1368    0.0000 O   0  0
    4.9991    2.7249    0.0000 C   0  0  2  0  0  0
    4.9933    1.8982    0.0000 O   0  0
    5.7037    1.4863    0.0000 C   0  0  1  0  0  0
    6.4200    1.8956    0.0000 C   0  0  2  0  0  0
    6.4215    2.7214    0.0000 C   0  0  1  0  0  0
    5.7067    3.1377    0.0000 C   0  0  1  0  0  0
    5.7011    0.6616    0.0000 C   0  0
    7.1369    3.1317    0.0000 O   0  0
    5.7063    3.9624    0.0000 O   0  0
    7.1330    1.4810    0.0000 O   0  0
    4.2830   -2.6283    0.0000 H   0  0
   -4.2723   -0.1661    0.0000 O   0  0
   -4.9879   -0.5783    0.0000 C   0  0  1  0  0  0
   -4.9879   -1.4030    0.0000 C   0  0  2  0  0  0
   -4.2723   -1.8154    0.0000 O   0  0
   -5.7067   -1.8154    0.0000 C   0  0  2  0  0  0
   -5.7067   -2.6401    0.0000 O   0  0
   -6.4197   -1.4030    0.0000 C   0  0  1  0  0  0
   -7.1369   -1.8154    0.0000 O   0  0
   -6.4197   -0.5783    0.0000 C   0  0  1  0  0  0
   -5.7067   -0.1661    0.0000 O   0  0
   -7.1369   -0.1661    0.0000 C   0  0
   -2.8576    0.6819    0.0000 O   0  0
   -3.5791    1.0838    0.0000 C   0  0  2  0  0  0
   -5.0111    1.0616    0.0000 C   0  0  1  0  0  0
   -5.7171    0.6375    0.0000 O   0  0
   -5.0302    1.8874    0.0000 C   0  0  1  0  0  0
   -5.7492    2.2856    0.0000 O   0  0
   -4.3150    2.3114    0.0000 C   0  0
   -3.5933    1.9096    0.0000 O   0  0
   -2.9977    1.6743    0.0000 H   0  0
   -1.0276   -0.0251    0.0000 C   0  0
   -1.4358    0.6871    0.0000 C   0  0  1  0  0  0
   -1.8485   -0.0225    0.0000 C   0  0
    2.4670    5.5146    0.0000 C   0  0
    2.8834    4.7981    0.0000 C   0  0
    3.2956    5.5171    0.0000 C   0  0
   -2.1438    1.9200    0.0000 C   0  0
   -2.1438    1.0953    0.0000 C   0  0  2  0  0  0
   -1.4321    2.3366    0.0000 C   0  0
   -0.7204    1.9200    0.0000 C   0  0  1  0  0  0
   -0.7193    1.0953    0.0000 C   0  0  1  0  0  0
   -0.0086    0.6861    0.0000 C   0  0
    0.7057    1.0972    0.0000 C   0  0
   -0.0107    2.3356    0.0000 C   0  0  2  0  0  0
    0.7043    1.9173    0.0000 C   0  0  2  0  0  0
    0.7122    3.5710    0.0000 C   0  0
   -0.0098    3.1617    0.0000 C   0  0
    1.4271    3.1527    0.0000 C   0  0
    1.4169    2.3240    0.0000 C   0  0  1  0  0  0
    2.1256    1.9033    0.0000 C   0  0
    2.8490    2.3064    0.0000 C   0  0
    2.1460    3.5606    0.0000 C   0  0  1  0  0  0
    2.8616    3.1327    0.0000 C   0  0  2  0  0  0
    3.5860    3.5363    0.0000 C   0  0
    3.6010    4.3693    0.0000 C   0  0
    2.1547    4.3920    0.0000 C   0  0
    3.5708    2.7240    0.0000 C   0  0
    3.5713    1.8992    0.0000 O   0  0
    1.4090    1.4993    0.0000 C   0  0
    0.6967    2.7447    0.0000 C   0  0
   -0.7277    2.7447    0.0000 C   0  0
   -1.4358    1.5118    0.0000 H   0  0
   -0.0155    1.5118    0.0000 H   0  0
    2.1378    2.7364    0.0000 H   0  0
   -2.6733   -0.0198    0.0000 O   0  0
   -4.2865    0.6597    0.0000 C   0  0  1  0  0  0
   -5.0010    0.2472    0.0000 H   0  0
 43 44  1  0
 43 45  1  6
 36 44  1  0
 16  1  1  6
  2 10  1  0
 24 23  1  1
 24 25  1  0
  2  1  1  0
 13 12  1  1
 13 14  1  0
  2  3  1  0
 47 46  1  0
 47 90  1  0
 90 35  1  0
 90 48  1  0
 48 49  1  1
 48 50  1  0
 50 51  1  1
 50 52  1  0
 52 53  1  0
 47 53  1  0
  3  4  1  6
 47 54  1  6
 56 55  1  0
 56 57  1  6
 24 29  1  0
 25 26  1  0
 26 27  1  0
 59 58  1  0
 59 60  1  0
 27 28  1  0
 28 29  1  0
  3  5  1  0
 61 62  1  0
 26 30  1  1
 30 12  1  0
  5  6  1  6
 61 63  1  0
 62 56  1  0
 56 65  1  0
 64 63  1  0
 64 65  1  0
 28 31  1  1
  5  7  1  0
 29 32  1  6
 13 18  1  0
 64 68  1  0
 65 66  1  0
 66 67  1  0
 67 69  1  0
 68 69  1  0
 27 33  1  6
 14 15  1  0
  2 34  1  6
 15 16  1  0
 68 71  1  0
 69 73  1  0
 72 70  2  0
 70 71  1  0
 72 73  1  0
 16 17  1  0
 17 18  1  0
  7  8  1  1
 15 19  1  1
 72 76  1  0
 73 74  1  0
 74 75  1  0
 75 77  1  0
 76 77  1  0
  7  9  1  0
 19 20  1  0
  9 10  1  0
 17 21  1  1
  9 11  1  6
 76 80  1  0
 77 78  1  0
 78 79  1  0
 79 59  1  0
 59 80  1  0
 18 22  1  6
 77 81  1  1
 36 35  1  1
 81 82  2  0
 81 23  1  0
 36 37  1  0
 73 83  1  6
 37 38  1  6
 69 84  1  1
 37 39  1  0
 64 85  1  1
 62 46  1  1
 39 40  1  6
 65 86  1  6
 39 41  1  0
 68 87  1  6
 41 42  1  1
 76 88  1  1
 41 43  1  0
 57 89  1  0
 90 91  1  1
M  END
>  <MOLREGNO>
1250438

>  <CHEMBLID>
CHEMBL1910840

>  <SYNONYMS>
Hederacoside C | Kalopanaxsaponin B

>  <MAX_PHASE>
0

>  <MOLWEIGHT>
1221.38

>  <ALOGP>


>  <PSA>


>  <HBA>


>  <HBD>


>  <RO5>


>  <RTB>


>  <RO3>


>  <ACD_MOST_APKA>


>  <ACD_MOST_BPKA>


>  <ACD_LOGP>


>  <ACD_LOGD>


>  <AROMATIC_RINGS>


>  <HEAVY_ATOMS>


>  <QED_WEIGHTED>


>  <HBA_LIPINSKI>


>  <HBD_LIPINSKI>


>  <NUM_LIPINSKI_RO5_VIOLATIONS>


>  <MW_MONOISOTOPIC>
1220.619

>  <MOLECULAR_SPECIES>


>  <FULL_MOLFORMULA>
C59H96O26

$$$$

  CDK    9/16/09,9:19

 69 76  0  0  0  0  0  0  0  0999 V2000
   -3.7335   -0.2893    0.0000 O   0  0  0  0  0  0  0  0  0  0  0  0
   -3.7338    0.5309    0.0000 C   0  0  0  0  0  0  0  0  0  0  0  0
   -4.4445    0.9411    0.0000 C   0  0  0  0  0  0  0  0  0  0  0  0
   -5.1548    0.5310    0.0000 O   0  0  0  0  0  0  0  0  0  0  0  0
   -4.4449    1.7612    0.0000 C   0  0  0  0  0  0  0  0  0  0  0  0
   -5.1556    2.1714    0.0000 O   0  0  0  0  0  0  0  0  0  0  0  0
   -3.7346    2.1714    0.0000 C   0  0  0  0  0  0  0  0  0  0  0  0
   -3.7349    2.9915    0.0000 O   0  0  0  0  0  0  0  0  0  0  0  0
   -3.0239    1.7612    0.0000 C   0  0  0  0  0  0  0  0  0  0  0  0
   -3.0236    0.9411    0.0000 O   0  0  0  0  0  0  0  0  0  0  0  0
   -2.3136    2.1714    0.0000 C   0  0  0  0  0  0  0  0  0  0  0  0
   -1.6029    1.7612    0.0000 O   0  0  0  0  0  0  0  0  0  0  0  0
   -0.1687   -0.6974    0.0000 C   0  0  0  0  0  0  0  0  0  0  0  0
   -0.1687   -1.5270    0.0000 C   0  0  0  0  0  0  0  0  0  0  0  0
    0.5465   -1.9419    0.0000 C   0  0  0  0  0  0  0  0  0  0  0  0
    0.5465   -0.2826    0.0000 C   0  0  0  0  0  0  0  0  0  0  0  0
    1.2662   -0.6974    0.0000 C   0  0  0  0  0  0  0  0  0  0  0  0
    1.2672   -1.5270    0.0000 C   0  0  0  0  0  0  0  0  0  0  0  0
    1.9829   -1.9410    0.0000 C   0  0  0  0  0  0  0  0  0  0  0  0
    2.7021   -1.5253    0.0000 C   0  0  0  0  0  0  0  0  0  0  0  0
    1.9808   -0.2817    0.0000 C   0  0  0  0  0  0  0  0  0  0  0  0
    2.6997   -0.6924    0.0000 C   0  0  0  0  0  0  0  0  0  0  0  0
    2.6951    0.9617    0.0000 C   0  0  0  0  0  0  0  0  0  0  0  0
    1.9753    0.5446    0.0000 C   0  0  0  0  0  0  0  0  0  0  0  0
    3.4093    0.5466    0.0000 C   0  0  0  0  0  0  0  0  0  0  0  0
    3.4051   -0.2781    0.0000 C   0  0  0  0  0  0  0  0  0  0  0  0
    4.1138   -0.6894    0.0000 C   0  0  0  0  0  0  0  0  0  0  0  0
    4.8312   -0.2854    0.0000 C   0  0  0  0  0  0  0  0  0  0  0  0
    4.1223    0.9597    0.0000 C   0  0  0  0  0  0  0  0  0  0  0  0
    4.8309    0.5377    0.0000 C   0  0  0  0  0  0  0  0  0  0  0  0
    5.5450    0.9411    0.0000 C   0  0  0  0  0  0  0  0  0  0  0  0
    5.5568    1.7633    0.0000 C   0  0  0  0  0  0  0  0  0  0  0  0
    4.8482    2.1808    0.0000 C   0  0  0  0  0  0  0  0  0  0  0  0
    4.1279    1.7804    0.0000 C   0  0  0  0  0  0  0  0  0  0  0  0
   -0.1732   -2.3475    0.0000 C   0  0  0  0  0  0  0  0  0  0  0  0
    0.5379   -2.7670    0.0000 C   0  0  0  0  0  0  0  0  0  0  0  0
    1.2581   -2.3475    0.0000 H   0  0  0  0  0  0  0  0  0  0  0  0
    1.2581    0.1277    0.0000 C   0  0  0  0  0  0  0  0  0  0  0  0
    1.9738   -1.1031    0.0000 H   0  0  0  0  0  0  0  0  0  0  0  0
    2.6940    0.1368    0.0000 C   0  0  0  0  0  0  0  0  0  0  0  0
    3.4005   -1.1031    0.0000 C   0  0  0  0  0  0  0  0  0  0  0  0
    3.4051    1.3721    0.0000 H   0  0  0  0  0  0  0  0  0  0  0  0
    5.5384    0.1277    0.0000 C   0  0  0  0  0  0  0  0  0  0  0  0
    4.1299    2.5983    0.0000 C   0  0  0  0  0  0  0  0  0  0  0  0
    5.5567    2.6029    0.0000 C   0  0  0  0  0  0  0  0  0  0  0  0
    5.5370   -0.6895    0.0000 O   0  0  0  0  0  0  0  0  0  0  0  0
    6.2518    0.5327    0.0000 O   0  0  0  0  0  0  0  0  0  0  0  0
   -0.8838   -1.9419    0.0000 O   0  0  0  0  0  0  0  0  0  0  0  0
   -1.5989   -1.5270    0.0000 C   0  0  0  0  0  0  0  0  0  0  0  0
   -1.5959   -0.7055    0.0000 O   0  0  0  0  0  0  0  0  0  0  0  0
   -2.3024   -0.2954    0.0000 C   0  0  0  0  0  0  0  0  0  0  0  0
   -3.0200   -0.7021    0.0000 C   0  0  0  0  0  0  0  0  0  0  0  0
   -3.0220   -1.5282    0.0000 C   0  0  0  0  0  0  0  0  0  0  0  0
   -2.3064   -1.9474    0.0000 C   0  0  0  0  0  0  0  0  0  0  0  0
   -2.3050   -2.7725    0.0000 O   0  0  0  0  0  0  0  0  0  0  0  0
   -3.7384   -1.9405    0.0000 O   0  0  0  0  0  0  0  0  0  0  0  0
   -3.0193   -3.1840    0.0000 C   0  0  0  0  0  0  0  0  0  0  0  0
   -3.7340   -2.7754    0.0000 O   0  0  0  0  0  0  0  0  0  0  0  0
   -4.4464   -3.1833    0.0000 C   0  0  0  0  0  0  0  0  0  0  0  0
   -4.4492   -4.0088    0.0000 C   0  0  0  0  0  0  0  0  0  0  0  0
   -3.7335   -4.4246    0.0000 C   0  0  0  0  0  0  0  0  0  0  0  0
   -3.0150   -4.0104    0.0000 C   0  0  0  0  0  0  0  0  0  0  0  0
   -2.2993   -4.4243    0.0000 O   0  0  0  0  0  0  0  0  0  0  0  0
   -3.7349   -5.2496    0.0000 O   0  0  0  0  0  0  0  0  0  0  0  0
   -5.1651   -4.4221    0.0000 O   0  0  0  0  0  0  0  0  0  0  0  0
   -5.1606   -2.7717    0.0000 C   0  0  0  0  0  0  0  0  0  0  0  0
   -1.6046   -2.3475    0.0000 H   0  0  0  0  0  0  0  0  0  0  0  0
   -3.0268   -2.3567    0.0000 H   0  0  0  0  0  0  0  0  0  0  0  0
   -4.4490    0.1277    0.0000 H   0  0  0  0  0  0  0  0  0  0  0  0
 30 31  1  0  0  0  0 
 31 32  1  0  0  0  0 
 32 33  1  0  0  0  0 
 33 34  1  0  0  0  0 
 17 18  1  0  0  0  0 
 15 35  1  0  0  0  0 
  3  5  1  0  0  0  0 
 15 36  1  0  0  0  0 
  5  6  1  1  0  0  0 
 18 37  1  6  0  0  0 
  5  7  1  0  0  0  0 
 17 38  1  1  0  0  0 
  7  8  1  6  0  0  0 
 21 39  1  6  0  0  0 
 17 21  1  0  0  0  0 
 22 40  1  1  0  0  0 
 18 19  1  0  0  0  0 
 26 41  1  6  0  0  0 
 19 20  1  0  0  0  0 
 29 42  1  1  0  0  0 
 20 22  1  0  0  0  0 
 30 43  1  1  0  0  0 
 21 22  1  0  0  0  0 
 33 44  1  0  0  0  0 
  7  9  1  0  0  0  0 
 33 45  1  0  0  0  0 
  9 10  1  0  0  0  0 
  9 11  1  1  0  0  0 
 43 46  1  0  0  0  0 
 43 47  2  0  0  0  0 
 11 12  1  0  0  0  0 
 14 48  1  1  0  0  0 
 21 24  1  0  0  0  0 
 48 49  1  0  0  0  0 
 49 50  1  0  0  0  0 
 22 26  1  0  0  0  0 
 25 23  2  0  0  0  0 
 23 24  1  0  0  0  0 
 25 26  1  0  0  0  0 
  2 10  1  0  0  0  0 
 49 54  1  0  0  0  0 
 50 51  1  0  0  0  0 
 51 52  1  0  0  0  0 
 52 53  1  0  0  0  0 
 53 54  1  0  0  0  0 
 13 14  1  0  0  0  0 
 54 55  1  6  0  0  0 
 53 56  1  1  0  0  0 
 52  1  1  1  0  0  0 
  2  1  1  0  0  0  0 
 55 57  1  0  0  0  0 
 57 58  1  0  0  0  0 
 25 29  1  0  0  0  0 
 26 27  1  0  0  0  0 
 27 28  1  0  0  0  0 
 28 30  1  0  0  0  0 
 29 30  1  0  0  0  0 
 57 62  1  0  0  0  0 
 58 59  1  0  0  0  0 
 59 60  1  0  0  0  0 
 60 61  1  0  0  0  0 
 61 62  1  0  0  0  0 
  2  3  1  0  0  0  0 
 62 63  1  6  0  0  0 
  3  4  1  6  0  0  0 
 61 64  1  6  0  0  0 
 13 16  1  0  0  0  0 
 60 65  1  1  0  0  0 
 14 15  1  0  0  0  0 
 59 66  1  6  0  0  0 
 15 18  1  0  0  0  0 
 49 67  1  6  0  0  0 
 17 16  1  0  0  0  0 
 57 68  1  6  0  0  0 
 29 34  1  0  0  0  0 
  2 69  1  6  0  0  0 
M  END
>  <MOLREGNO>
481761

>  <CHEMBLID>
CHEMBL444941

>  <SYNONYMS>
Hederacolchiside A1

>  <MAX_PHASE>
0

>  <MOLWEIGHT>
897.1

>  <ALOGP>
2.61

>  <PSA>
254.51

>  <HBA>
16

>  <HBD>
9

>  <RO5>
3

>  <RTB>
8

>  <RO3>
N

>  <ACD_MOST_APKA>
4.64

>  <ACD_MOST_BPKA>


>  <ACD_LOGP>
5.71

>  <ACD_LOGD>
2.99

>  <AROMATIC_RINGS>
0

>  <HEAVY_ATOMS>
63

>  <QED_WEIGHTED>
.13

>  <HBA_LIPINSKI>
16

>  <HBD_LIPINSKI>
9

>  <NUM_LIPINSKI_RO5_VIOLATIONS>
2

>  <MW_MONOISOTOPIC>
896.5133

>  <MOLECULAR_SPECIES>
ACID

>  <FULL_MOLFORMULA>
C47H76O16

$$$$

  SciTegic01161211232D

 21 21  0  0  0  0            999 V2000
   -1.2681    1.3084    0.0000 C   0  0
   -1.2693    0.4810    0.0000 C   0  0
   -0.5544    0.0681    0.0000 C   0  0
    0.1620    0.4815    0.0000 C   0  0
    0.1591    1.3120    0.0000 C   0  0
   -0.5562    1.7211    0.0000 C   0  0
   -1.9827    1.7207    0.0000 O   0  0
   -2.6970    1.3080    0.0000 C   0  0
   -1.9841    0.0691    0.0000 O   0  0
    0.8721    1.7272    0.0000 C   0  0
    1.5881    1.3174    0.0000 C   0  0
    2.3010    1.7326    0.0000 C   0  0
    3.0170    1.3228    0.0000 C   0  0
    2.2979    2.5576    0.0000 O   0  0
    3.7299    1.7380    0.0000 C   0  0  2  0  0  0
    4.4459    1.3282    0.0000 C   0  0
    3.7268    2.5630    0.0000 O   0  0
    5.1589    1.7433    0.0000 C   0  0
    5.8749    1.3335    0.0000 C   0  0
    6.5878    1.7487    0.0000 C   0  0
    7.3038    1.3389    0.0000 C   0  0
  2  3  1  0
 10 11  1  0
  5  6  2  0
 11 12  1  0
  6  1  1  0
 12 13  1  0
  1  2  2  0
 12 14  2  0
  1  7  1  0
 13 15  1  0
  3  4  2  0
 15 16  1  0
  7  8  1  0
 15 17  1  1
 16 18  1  0
  2  9  1  0
 18 19  1  0
  4  5  1  0
 19 20  1  0
  5 10  1  0
 20 21  1  0
M  END
>  <MOLREGNO>
425474

>  <CHEMBLID>
CHEMBL402978

>  <SYNONYMS>
6-Gingerol | [6]-gingerol | Gingerol

>  <MAX_PHASE>
0

>  <MOLWEIGHT>
294.39

>  <ALOGP>
3.64

>  <PSA>
66.76

>  <HBA>
4

>  <HBD>
2

>  <RO5>
0

>  <RTB>
10

>  <RO3>
N

>  <ACD_MOST_APKA>
10.02

>  <ACD_MOST_BPKA>


>  <ACD_LOGP>
2.86

>  <ACD_LOGD>
2.86

>  <AROMATIC_RINGS>
1

>  <HEAVY_ATOMS>
21

>  <QED_WEIGHTED>
.65

>  <HBA_LIPINSKI>
4

>  <HBD_LIPINSKI>
2

>  <NUM_LIPINSKI_RO5_VIOLATIONS>
0

>  <MW_MONOISOTOPIC>
294.1831

>  <MOLECULAR_SPECIES>
NEUTRAL

>  <FULL_MOLFORMULA>
C17H26O4

$$$$

  SciTegic01161211252D

 23 23  0  0  0  0            999 V2000
   -0.8514   -4.5125    0.0000 C   0  0
   -0.8526   -5.3398    0.0000 C   0  0
   -0.1378   -5.7527    0.0000 C   0  0
    0.5787   -5.3394    0.0000 C   0  0
    0.5758   -4.5088    0.0000 C   0  0
   -0.1396   -4.0997    0.0000 C   0  0
   -1.5660   -4.1001    0.0000 O   0  0
   -2.2804   -4.5128    0.0000 C   0  0
   -1.5674   -5.7518    0.0000 O   0  0
    1.2887   -4.0936    0.0000 C   0  0
    2.0047   -4.5034    0.0000 C   0  0
    2.7177   -4.0883    0.0000 C   0  0
    3.4337   -4.4981    0.0000 C   0  0
    2.7145   -3.2633    0.0000 O   0  0
    4.1466   -4.0829    0.0000 C   0  0  2  0  0  0
    4.8626   -4.4927    0.0000 C   0  0
    4.1435   -3.2579    0.0000 O   0  0
    5.5755   -4.0775    0.0000 C   0  0
    6.2915   -4.4873    0.0000 C   0  0
    7.0044   -4.0721    0.0000 C   0  0
    7.7205   -4.4819    0.0000 C   0  0
    8.4334   -4.0667    0.0000 C   0  0
    9.1494   -4.4765    0.0000 C   0  0
  5  6  2  0
 11 12  1  0
  6  1  1  0
 12 13  1  0
  1  2  2  0
 12 14  2  0
  1  7  1  0
 13 15  1  0
  3  4  2  0
 15 16  1  0
  7  8  1  0
 15 17  1  1
 16 18  1  0
  2  9  1  0
 18 19  1  0
  4  5  1  0
 19 20  1  0
  5 10  1  0
 20 21  1  0
  2  3  1  0
 21 22  1  0
 10 11  1  0
 22 23  1  0
M  END
>  <MOLREGNO>
627805

>  <CHEMBLID>
CHEMBL1095671

>  <SYNONYMS>
8-Gingerol

>  <MAX_PHASE>
0

>  <MOLWEIGHT>
322.44

>  <ALOGP>
4.55

>  <PSA>
66.76

>  <HBA>
4

>  <HBD>
2

>  <RO5>
0

>  <RTB>
12

>  <RO3>
N

>  <ACD_MOST_APKA>
10.02

>  <ACD_MOST_BPKA>


>  <ACD_LOGP>
3.88

>  <ACD_LOGD>
3.88

>  <AROMATIC_RINGS>
1

>  <HEAVY_ATOMS>
23

>  <QED_WEIGHTED>
.55

>  <HBA_LIPINSKI>
4

>  <HBD_LIPINSKI>
2

>  <NUM_LIPINSKI_RO5_VIOLATIONS>
0

>  <MW_MONOISOTOPIC>
322.2144

>  <MOLECULAR_SPECIES>
NEUTRAL

>  <FULL_MOLFORMULA>
C19H30O4

$$$$

  SciTegic01161211242D

 25 25  0  0  0  0            999 V2000
   -0.6389   -8.4708    0.0000 C   0  0
   -0.6401   -9.2982    0.0000 C   0  0
    0.0747   -9.7110    0.0000 C   0  0
    0.7912   -9.2977    0.0000 C   0  0
    0.7883   -8.4672    0.0000 C   0  0
    0.0729   -8.0580    0.0000 C   0  0
   -1.3535   -8.0585    0.0000 O   0  0
   -2.0679   -8.4711    0.0000 C   0  0
   -1.3549   -9.7101    0.0000 O   0  0
    1.5012   -8.0520    0.0000 C   0  0
    2.2172   -8.4618    0.0000 C   0  0
    2.9302   -8.0466    0.0000 C   0  0
    3.6462   -8.4564    0.0000 C   0  0
    2.9270   -7.2216    0.0000 O   0  0
    4.3591   -8.0412    0.0000 C   0  0  2  0  0  0
    5.0751   -8.4510    0.0000 C   0  0
    4.3560   -7.2162    0.0000 O   0  0
    5.7880   -8.0358    0.0000 C   0  0
    6.5040   -8.4456    0.0000 C   0  0
    7.2169   -8.0304    0.0000 C   0  0
    7.9330   -8.4402    0.0000 C   0  0
    8.6459   -8.0251    0.0000 C   0  0
    9.3619   -8.4349    0.0000 C   0  0
   10.0748   -8.0197    0.0000 C   0  0
   10.7908   -8.4295    0.0000 C   0  0
  6  1  1  0
 12 13  1  0
  1  2  2  0
 12 14  2  0
  1  7  1  0
 13 15  1  0
  3  4  2  0
 15 16  1  0
  7  8  1  0
 15 17  1  1
 16 18  1  0
  2  9  1  0
 18 19  1  0
  4  5  1  0
 19 20  1  0
  5 10  1  0
 20 21  1  0
  2  3  1  0
 21 22  1  0
 10 11  1  0
 22 23  1  0
  5  6  2  0
 23 24  1  0
 11 12  1  0
 24 25  1  0
M  END
>  <MOLREGNO>
563320

>  <CHEMBLID>
CHEMBL549472

>  <SYNONYMS>
10-Gingerol

>  <MAX_PHASE>
0

>  <MOLWEIGHT>
350.49

>  <ALOGP>
5.46

>  <PSA>
66.76

>  <HBA>
4

>  <HBD>
2

>  <RO5>
1

>  <RTB>
14

>  <RO3>
N

>  <ACD_MOST_APKA>
10.02

>  <ACD_MOST_BPKA>


>  <ACD_LOGP>
4.9

>  <ACD_LOGD>
4.9

>  <AROMATIC_RINGS>
1

>  <HEAVY_ATOMS>
25

>  <QED_WEIGHTED>
.44

>  <HBA_LIPINSKI>
4

>  <HBD_LIPINSKI>
2

>  <NUM_LIPINSKI_RO5_VIOLATIONS>
1

>  <MW_MONOISOTOPIC>
350.2457

>  <MOLECULAR_SPECIES>
NEUTRAL

>  <FULL_MOLFORMULA>
C21H34O4

$$$$

  SciTegic01161211212D

 20 20  0  0  0  0            999 V2000
   -3.2514    0.6417    0.0000 C   0  0
   -3.2526   -0.1857    0.0000 C   0  0
   -2.5378   -0.5985    0.0000 C   0  0
   -1.8213   -0.1852    0.0000 C   0  0
   -1.8242    0.6453    0.0000 C   0  0
   -2.5396    1.0545    0.0000 C   0  0
   -3.9660    1.0540    0.0000 O   0  0
   -4.6804    0.6414    0.0000 C   0  0
   -3.9674   -0.5976    0.0000 O   0  0
   -1.1113    1.0605    0.0000 C   0  0
   -0.3953    0.6507    0.0000 C   0  0
    0.3177    1.0659    0.0000 C   0  0
    1.0337    0.6561    0.0000 C   0  0
    0.3145    1.8909    0.0000 O   0  0
    1.7466    1.0713    0.0000 C   0  0
    2.4626    0.6615    0.0000 C   0  0
    3.1755    1.0767    0.0000 C   0  0
    3.8915    0.6669    0.0000 C   0  0
    4.6044    1.0821    0.0000 C   0  0
    5.3205    0.6723    0.0000 C   0  0
  5 10  1  0
  2  3  1  0
 10 11  1  0
  5  6  2  0
 11 12  1  0
  6  1  1  0
 12 13  1  0
  1  2  2  0
 12 14  2  0
  1  7  1  0
 13 15  2  0
  3  4  2  0
 15 16  1  0
  7  8  1  0
 16 17  1  0
 17 18  1  0
  2  9  1  0
 18 19  1  0
  4  5  1  0
 19 20  1  0
M  END
>  <MOLREGNO>
31487

>  <CHEMBLID>
CHEMBL25948

>  <SYNONYMS>
6-Shogaol | Trans-6-Shogaol

>  <MAX_PHASE>
0

>  <MOLWEIGHT>
276.37

>  <ALOGP>
4.72

>  <PSA>
46.53

>  <HBA>
3

>  <HBD>
1

>  <RO5>
0

>  <RTB>
9

>  <RO3>
N

>  <ACD_MOST_APKA>
10.01

>  <ACD_MOST_BPKA>


>  <ACD_LOGP>
3.79

>  <ACD_LOGD>
3.79

>  <AROMATIC_RINGS>
1

>  <HEAVY_ATOMS>
20

>  <QED_WEIGHTED>
.52

>  <HBA_LIPINSKI>
3

>  <HBD_LIPINSKI>
1

>  <NUM_LIPINSKI_RO5_VIOLATIONS>
0

>  <MW_MONOISOTOPIC>
276.1725

>  <MOLECULAR_SPECIES>
NEUTRAL

>  <FULL_MOLFORMULA>
C17H24O3

$$$$

  SciTegic01161211212D

 22 22  0  0  0  0            999 V2000
    7.9486    0.8667    0.0000 C   0  0
    7.9474    0.0393    0.0000 C   0  0
    8.6622   -0.3735    0.0000 C   0  0
    9.3787    0.0398    0.0000 C   0  0
    9.3758    0.8703    0.0000 C   0  0
    8.6604    1.2795    0.0000 C   0  0
    7.2340    1.2790    0.0000 O   0  0
    6.5196    0.8664    0.0000 C   0  0
    7.2326   -0.3726    0.0000 O   0  0
   10.0887    1.2855    0.0000 C   0  0
   10.8047    0.8757    0.0000 C   0  0
   11.5177    1.2909    0.0000 C   0  0
   12.2337    0.8811    0.0000 C   0  0
   11.5145    2.1159    0.0000 O   0  0
   12.9466    1.2963    0.0000 C   0  0
   13.6626    0.8865    0.0000 C   0  0
   14.3755    1.3017    0.0000 C   0  0
   15.0915    0.8919    0.0000 C   0  0
   15.8044    1.3071    0.0000 C   0  0
   16.5205    0.8973    0.0000 C   0  0
   17.2334    1.3125    0.0000 C   0  0
   17.9494    0.9026    0.0000 C   0  0
 10 11  1  0
  5  6  2  0
 11 12  1  0
  6  1  1  0
 12 13  1  0
  1  2  2  0
 12 14  2  0
  1  7  1  0
 13 15  2  0
  3  4  2  0
 15 16  1  0
  7  8  1  0
 16 17  1  0
 17 18  1  0
  2  9  1  0
 18 19  1  0
  4  5  1  0
 19 20  1  0
  5 10  1  0
 20 21  1  0
  2  3  1  0
 21 22  1  0
M  END
>  <MOLREGNO>
31486

>  <CHEMBLID>
CHEMBL25893

>  <SYNONYMS>
8-Shogaol

>  <MAX_PHASE>
0

>  <MOLWEIGHT>
304.42

>  <ALOGP>
5.63

>  <PSA>
46.53

>  <HBA>
3

>  <HBD>
1

>  <RO5>
1

>  <RTB>
11

>  <RO3>
N

>  <ACD_MOST_APKA>
10.01

>  <ACD_MOST_BPKA>


>  <ACD_LOGP>
4.81

>  <ACD_LOGD>
4.81

>  <AROMATIC_RINGS>
1

>  <HEAVY_ATOMS>
22

>  <QED_WEIGHTED>
.43

>  <HBA_LIPINSKI>
3

>  <HBD_LIPINSKI>
1

>  <NUM_LIPINSKI_RO5_VIOLATIONS>
1

>  <MW_MONOISOTOPIC>
304.2038

>  <MOLECULAR_SPECIES>
NEUTRAL

>  <FULL_MOLFORMULA>
C19H28O3

$$$$

  SciTegic01161211212D

 14 14  0  0  0  0            999 V2000
   10.1152    1.3417    0.0000 C   0  0
   10.1141    0.5143    0.0000 C   0  0
   10.8289    0.1015    0.0000 C   0  0
   11.5453    0.5148    0.0000 C   0  0
   11.5425    1.3453    0.0000 C   0  0
   10.8271    1.7545    0.0000 C   0  0
   12.2554    1.7605    0.0000 C   0  0
   12.9714    1.3507    0.0000 C   0  0
    9.3993    0.1024    0.0000 O   0  0
    9.4007    1.7540    0.0000 O   0  0
    9.4005    2.5790    0.0000 C   0  0
   13.6843    1.7659    0.0000 C   0  0
   14.4003    1.3561    0.0000 C   0  0
   13.6812    2.5909    0.0000 O   0  0
  5  7  1  0
  3  4  2  0
  7  8  1  0
  2  9  1  0
  4  5  1  0
  1 10  1  0
  2  3  1  0
 10 11  1  0
  5  6  2  0
  8 12  1  0
  6  1  1  0
 12 13  1  0
  1  2  2  0
 12 14  2  0
M  END
>  <MOLREGNO>
31213

>  <CHEMBLID>
CHEMBL25894

>  <SYNONYMS>
Zingerone | Vanillylacetone

>  <MAX_PHASE>
0

>  <MOLWEIGHT>
194.23

>  <ALOGP>
1.79

>  <PSA>
46.53

>  <HBA>
3

>  <HBD>
1

>  <RO5>
0

>  <RTB>
4

>  <RO3>
N

>  <ACD_MOST_APKA>
10.03

>  <ACD_MOST_BPKA>


>  <ACD_LOGP>
1.17

>  <ACD_LOGD>
1.17

>  <AROMATIC_RINGS>
1

>  <HEAVY_ATOMS>
14

>  <QED_WEIGHTED>
.79

>  <HBA_LIPINSKI>
3

>  <HBD_LIPINSKI>
1

>  <NUM_LIPINSKI_RO5_VIOLATIONS>
0

>  <MW_MONOISOTOPIC>
194.0943

>  <MOLECULAR_SPECIES>
NEUTRAL

>  <FULL_MOLFORMULA>
C11H14O3

$$$$

  SciTegic01161211252D

 36 41  0  0  0  0            999 V2000
    0.8524    2.8491    0.0000 O   0  0
    0.8524    2.0241    0.0000 C   0  0  2  0  0  0
    1.5646    1.6137    0.0000 C   0  0
    2.2726    2.0241    0.0000 C   0  0
    2.2726    2.8491    0.0000 C   0  0  2  0  0  0
    1.5646    3.2637    0.0000 C   0  0
   -4.7914    0.1160    0.0000 C   0  0
   -4.7914   -0.7090    0.0000 C   0  0  1  0  0  0
   -4.0792   -1.1194    0.0000 C   0  0
   -4.0792    0.5306    0.0000 C   0  0  2  0  0  0
   -3.3671    0.1160    0.0000 C   0  0  2  0  0  0
   -3.3655   -0.7090    0.0000 C   0  0
   -2.6548   -1.1167    0.0000 C   0  0
   -1.9388   -0.7063    0.0000 C   0  0
   -3.3741    0.9410    0.0000 C   0  0
   -2.6580    0.5333    0.0000 C   0  0  2  0  0  0
   -1.9417    0.1178    0.0000 C   0  0  2  0  0  0
   -1.9394    1.7703    0.0000 C   0  0
   -2.6595    1.3562    0.0000 C   0  0
   -1.2230    1.3547    0.0000 C   0  0  1  0  0  0
   -1.2278    0.5271    0.0000 C   0  0  1  0  0  0
   -0.4381    0.2676    0.0000 C   0  0
   -0.4346    1.6093    0.0000 C   0  0  2  0  0  0
    0.0523    0.9351    0.0000 C   0  0  1  0  0  0
    0.8458    1.1860    0.0000 O   0  0
    0.0577    2.2808    0.0000 C   0  0  2  0  0  0
   -1.2270    2.1806    0.0000 C   0  0
   -0.1939    3.0672    0.0000 C   0  0
    2.9903    3.2584    0.0000 C   0  0
   -2.6580   -0.2917    0.0000 H   0  0
   -1.9417    0.9428    0.0000 H   0  0
   -1.2278   -0.2979    0.0000 H   0  0
    0.4648    0.2192    0.0000 H   0  0
   -0.6542    0.8167    0.0000 H   0  0
   -4.0792    1.3556    0.0000 O   0  0
   -5.5063   -1.1231    0.0000 O   0  0
  2  3  1  0
  3  4  1  0
  4  5  1  0
  5  6  1  0
  7  8  1  0
  7 10  1  0
  8  9  1  0
  9 12  1  0
 11 10  1  0
 11 12  1  0
 11 16  1  0
 12 13  2  0
 13 14  1  0
 14 17  1  0
 11 15  1  1
 16 17  1  0
 16 19  1  0
 17 21  1  0
 20 18  1  0
 18 19  1  0
 20 21  1  0
 21 22  1  0
 22 24  1  0
 23 20  1  0
 23 24  1  0
 24 25  1  0
 25  2  1  0
  2 26  1  0
 26 23  1  0
 20 27  1  1
 26 28  1  6
  5 29  1  6
 16 30  1  6
 17 31  1  1
 21 32  1  6
 24 33  1  6
 23 34  1  6
  2  1  1  6
  1  6  1  0
 10 35  1  1
  8 36  1  1
M  END
>  <MOLREGNO>
648212

>  <CHEMBLID>
CHEMBL1169820

>  <SYNONYMS>
Ruscogenin

>  <MAX_PHASE>
0

>  <MOLWEIGHT>
430.62

>  <ALOGP>
3.41

>  <PSA>
58.92

>  <HBA>
4

>  <HBD>
2

>  <RO5>
0

>  <RTB>
0

>  <RO3>
N

>  <ACD_MOST_APKA>


>  <ACD_MOST_BPKA>


>  <ACD_LOGP>
5.11

>  <ACD_LOGD>
5.11

>  <AROMATIC_RINGS>
0

>  <HEAVY_ATOMS>
31

>  <QED_WEIGHTED>
.58

>  <HBA_LIPINSKI>
4

>  <HBD_LIPINSKI>
2

>  <NUM_LIPINSKI_RO5_VIOLATIONS>
0

>  <MW_MONOISOTOPIC>
430.3083

>  <MOLECULAR_SPECIES>
NEUTRAL

>  <FULL_MOLFORMULA>
C27H42O4

$$$$

  CDK    9/16/09,9:20

 36 38  0  0  0  0  0  0  0  0999 V2000
    0.5101  -20.5628    0.0000 C   0  0  0  0  0  0  0  0  0  0  0  0
    0.5087  -21.3907    0.0000 C   0  0  0  0  0  0  0  0  0  0  0  0
    1.2197  -21.8035    0.0000 C   0  0  0  0  0  0  0  0  0  0  0  0
    1.9375  -21.3902    0.0000 C   0  0  0  0  0  0  0  0  0  0  0  0
    1.9341  -20.5584    0.0000 C   0  0  0  0  0  0  0  0  0  0  0  0
    1.2175  -20.1500    0.0000 C   0  0  0  0  0  0  0  0  0  0  0  0
   -0.2092  -21.8020    0.0000 O   0  0  0  0  0  0  0  0  0  0  0  0
    1.2181  -22.6285    0.0000 O   0  0  0  0  0  0  0  0  0  0  0  0
    1.2132  -19.3250    0.0000 C   0  0  0  0  0  0  0  0  0  0  0  0
    1.9283  -18.9089    0.0000 C   0  0  0  0  0  0  0  0  0  0  0  0
    1.9240  -18.0839    0.0000 C   0  0  0  0  0  0  0  0  0  0  0  0
    2.6344  -17.6678    0.0000 O   0  0  0  0  0  0  0  0  0  0  0  0
    1.2047  -17.6751    0.0000 O   0  0  0  0  0  0  0  0  0  0  0  0
    3.3537  -18.0765    0.0000 C   0  0  0  0  0  0  0  0  0  0  0  0
    4.0642  -17.6604    0.0000 C   0  0  0  0  0  0  0  0  0  0  0  0
    3.3533  -18.9015    0.0000 C   0  0  0  0  0  0  0  0  0  0  0  0
    2.6429  -19.3178    0.0000 O   0  0  0  0  0  0  0  0  0  0  0  0
    4.0726  -19.3104    0.0000 O   0  0  0  0  0  0  0  0  0  0  0  0
    4.0600  -16.8354    0.0000 C   0  0  0  0  0  0  0  0  0  0  0  0
    4.7721  -16.4200    0.0000 C   0  0  0  0  0  0  0  0  0  0  0  0
    4.7728  -15.5959    0.0000 C   0  0  0  0  0  0  0  0  0  0  0  0
    4.0529  -15.1862    0.0000 C   0  0  0  0  0  0  0  0  0  0  0  0
    3.3399  -15.6072    0.0000 C   0  0  0  0  0  0  0  0  0  0  0  0
    3.3476  -16.4298    0.0000 C   0  0  0  0  0  0  0  0  0  0  0  0
    5.4835  -15.1801    0.0000 O   0  0  0  0  0  0  0  0  0  0  0  0
    4.0474  -14.3613    0.0000 O   0  0  0  0  0  0  0  0  0  0  0  0
   -0.2075  -20.1509    0.0000 C   0  0  0  0  0  0  0  0  0  0  0  0
   -0.9196  -20.5642    0.0000 C   0  0  0  0  0  0  0  0  0  0  0  0
   -1.6371  -20.1522    0.0000 C   0  0  0  0  0  0  0  0  0  0  0  0
   -1.6351  -19.3279    0.0000 C   0  0  0  0  0  0  0  0  0  0  0  0
   -2.3472  -18.9161    0.0000 C   0  0  0  0  0  0  0  0  0  0  0  0
   -3.0650  -19.3293    0.0000 C   0  0  0  0  0  0  0  0  0  0  0  0
   -3.0613  -20.1590    0.0000 C   0  0  0  0  0  0  0  0  0  0  0  0
   -2.3441  -20.5667    0.0000 C   0  0  0  0  0  0  0  0  0  0  0  0
   -2.3476  -18.0911    0.0000 O   0  0  0  0  0  0  0  0  0  0  0  0
   -3.7787  -18.9186    0.0000 O   0  0  0  0  0  0  0  0  0  0  0  0
 16 18  2  0  0  0  0 
  6  9  1  0  0  0  0 
 15 19  1  0  0  0  0 
  4  5  1  0  0  0  0 
 19 20  2  0  0  0  0 
  9 10  2  0  0  0  0 
 20 21  1  0  0  0  0 
  2  3  1  0  0  0  0 
 21 22  2  0  0  0  0 
 10 11  1  0  0  0  0 
 22 23  1  0  0  0  0 
  5  6  2  0  0  0  0 
 23 24  2  0  0  0  0 
 24 19  1  0  0  0  0 
 11 12  1  0  0  0  0 
 21 25  1  0  0  0  0 
  6  1  1  0  0  0  0 
 22 26  1  0  0  0  0 
 11 13  2  0  0  0  0 
  1 27  1  0  0  0  0 
  1  2  2  0  0  0  0 
 27 28  2  0  0  0  0 
 12 14  1  0  0  0  0 
 28 29  1  0  0  0  0 
  2  7  1  0  0  0  0 
 29 30  2  0  0  0  0 
 14 15  1  0  0  0  0 
 30 31  1  0  0  0  0 
  3  4  2  0  0  0  0 
 31 32  2  0  0  0  0 
 14 16  1  6  0  0  0 
 32 33  1  0  0  0  0 
  3  8  1  0  0  0  0 
 33 34  2  0  0  0  0 
 34 29  1  0  0  0  0 
 16 17  1  0  0  0  0 
 31 35  1  0  0  0  0 
 32 36  1  0  0  0  0 
M  END
>  <MOLREGNO>
464655

>  <CHEMBLID>
CHEMBL457077

>  <SYNONYMS>
Salvianolic Acid A

>  <MAX_PHASE>
0

>  <MOLWEIGHT>
494.45

>  <ALOGP>
4.21

>  <PSA>
184.98

>  <HBA>
10

>  <HBD>
7

>  <RO5>
1

>  <RTB>
9

>  <RO3>
N

>  <ACD_MOST_APKA>
2.78

>  <ACD_MOST_BPKA>


>  <ACD_LOGP>
4.74

>  <ACD_LOGD>
1.01

>  <AROMATIC_RINGS>
3

>  <HEAVY_ATOMS>
36

>  <QED_WEIGHTED>
.1

>  <HBA_LIPINSKI>
10

>  <HBD_LIPINSKI>
7

>  <NUM_LIPINSKI_RO5_VIOLATIONS>
1

>  <MW_MONOISOTOPIC>
494.1213

>  <MOLECULAR_SPECIES>
ACID

>  <FULL_MOLFORMULA>
C26H22O10

$$$$

  SciTegic01161211242D

 52 56  0  0  0  0            999 V2000
   -5.9598   -5.1583    0.0000 C   0  0
   -5.9609   -5.9857    0.0000 C   0  0
   -5.2461   -6.3985    0.0000 C   0  0
   -4.5297   -5.9852    0.0000 C   0  0
   -4.5325   -5.1547    0.0000 C   0  0
   -5.2479   -4.7455    0.0000 C   0  0
   -3.8196   -4.7395    0.0000 C   0  0
   -3.1036   -5.1493    0.0000 C   0  0  2  0  0  0
   -2.3907   -4.7341    0.0000 C   0  0
   -3.1005   -5.9743    0.0000 O   0  0
   -6.6826   -6.3976    0.0000 O   0  0
   -5.2463   -7.2235    0.0000 O   0  0
   -1.6747   -5.1439    0.0000 O   0  0
   -2.3938   -3.9091    0.0000 O   0  0
   -2.3845   -6.3841    0.0000 C   0  0
   -2.3814   -7.2091    0.0000 O   0  0
   -1.6716   -5.9689    0.0000 C   0  0
   -0.9555   -6.3787    0.0000 C   0  0
   -0.2426   -5.9635    0.0000 C   0  0
    1.1823   -5.1346    0.0000 C   0  0
    0.4613   -4.7249    0.0000 C   0  0
   -0.2482   -5.1418    0.0000 C   0  0
    0.4553   -3.9000    0.0000 O   0  0
    1.7943   -6.5074    0.0000 O   0  0
    1.1850   -5.9604    0.0000 C   0  0
    0.4765   -6.3721    0.0000 C   0  0
    0.6506   -7.1731    0.0000 C   0  0  2  0  0  0
    1.4660   -7.2537    0.0000 C   0  0  1  0  0  0
    1.8782   -7.9683    0.0000 C   0  0
    0.2376   -7.8869    0.0000 C   0  0
   -0.5874   -7.8859    0.0000 O   0  0
    0.6493   -8.6019    0.0000 O   0  0
    0.2359   -9.3159    0.0000 C   0  0  2  0  0  0
    0.6476  -10.0308    0.0000 C   0  0
   -0.5891   -9.3149    0.0000 C   0  0
    0.2342  -10.7448    0.0000 C   0  0
   -0.5916  -10.7391    0.0000 C   0  0
   -1.0048  -11.4522    0.0000 C   0  0
   -0.5932  -12.1682    0.0000 C   0  0
    0.2361  -12.1665    0.0000 C   0  0
    0.6457  -11.4528    0.0000 C   0  0
   -1.0056  -12.8827    0.0000 O   0  0
    0.6503  -12.8800    0.0000 O   0  0
    1.4650   -8.6797    0.0000 C   0  0
    1.8765   -9.3938    0.0000 C   0  0
    2.7024   -9.3946    0.0000 C   0  0
    3.1150   -8.6753    0.0000 C   0  0
    2.7011   -7.9641    0.0000 C   0  0
    3.9400   -8.6728    0.0000 O   0  0
    3.1155  -10.1087    0.0000 O   0  0
   -1.0007   -8.5999    0.0000 O   0  0
   -1.0024  -10.0288    0.0000 O   0  0
  6  1  1  0
  9 13  1  0
  1  2  2  0
 24 25  1  0
 26 27  1  0
 27 28  1  0
 28 24  1  0
  9 14  2  0
 28 29  1  6
  5  7  1  0
 27 30  1  1
 10 15  1  0
 30 31  1  0
  3  4  2  0
 30 32  1  0
 15 16  2  0
 32 33  1  0
  7  8  1  0
 33 34  1  6
 15 17  1  0
 33 35  1  0
 34 36  1  0
 17 18  2  0
 36 37  2  0
  8  9  1  0
 37 38  1  0
 18 19  1  0
 38 39  2  0
 19 26  2  0
 39 40  1  0
  4  5  1  0
 40 41  2  0
 41 36  1  0
 25 20  2  0
 39 42  1  0
  8 10  1  6
 40 43  1  0
 20 21  1  0
 29 44  2  0
  2  3  1  0
 44 45  1  0
 21 22  2  0
 45 46  2  0
 22 19  1  0
 46 47  1  0
  2 11  1  0
 47 48  2  0
 48 29  1  0
 21 23  1  0
 47 49  1  0
 25 26  1  0
 46 50  1  0
  5  6  2  0
 35 51  2  0
  3 12  1  0
 35 52  1  0
M  END
>  <MOLREGNO>
554317

>  <CHEMBLID>
CHEMBL541265

>  <SYNONYMS>
Salvianolic Acid B

>  <MAX_PHASE>
0

>  <MOLWEIGHT>
720.63

>  <ALOGP>
4.44

>  <PSA>
281.2

>  <HBA>
16

>  <HBD>
10

>  <RO5>
3

>  <RTB>
14

>  <RO3>
N

>  <ACD_MOST_APKA>
2.77

>  <ACD_MOST_BPKA>


>  <ACD_LOGP>
-.27

>  <ACD_LOGD>
-5.03

>  <AROMATIC_RINGS>
4

>  <HEAVY_ATOMS>
52

>  <QED_WEIGHTED>
.04

>  <HBA_LIPINSKI>
16

>  <HBD_LIPINSKI>
10

>  <NUM_LIPINSKI_RO5_VIOLATIONS>
2

>  <MW_MONOISOTOPIC>
720.169

>  <MOLECULAR_SPECIES>
ACID

>  <FULL_MOLFORMULA>
C36H32O16

$$$$

  SciTegic01161211222D

 22 25  0  0  0  0            999 V2000
    8.0339   -6.2132    0.0000 C   0  0
    7.3267   -6.6281    0.0000 C   0  0
    6.6118   -6.2240    0.0000 C   0  0
    6.6041   -5.3932    0.0000 C   0  0
    5.8846   -4.9868    0.0000 C   0  0
    5.1684   -5.4066    0.0000 C   0  0
    5.1761   -6.2374    0.0000 C   0  0
    5.9002   -6.6484    0.0000 C   0  0
    5.4787   -7.3607    0.0000 C   0  0
    6.3049   -7.3607    0.0000 C   0  0
    7.3166   -4.9810    0.0000 C   0  0
    8.0339   -5.3886    0.0000 C   0  0
    8.0208   -3.7414    0.0000 C   0  0
    7.3069   -4.1583    0.0000 C   0  0
    8.7382   -4.1489    0.0000 C   0  0
    8.7411   -4.9736    0.0000 C   0  0
    9.5262   -5.2257    0.0000 O   0  0
   10.0087   -4.5568    0.0000 C   0  0
    9.5216   -3.8914    0.0000 C   0  0
    8.0158   -2.9152    0.0000 O   0  0
    6.5879   -3.7512    0.0000 O   0  0
    9.7741   -3.1048    0.0000 C   0  0
  8 10  1  0
 11 12  1  0
  3  2  2  0
  2  1  1  0
  3  4  1  0
 11 14  1  0
 12 16  1  0
 15 13  1  0
 13 14  1  0
 15 16  2  0
  3  8  1  0
  4  5  1  0
  5  6  1  0
  6  7  1  0
  7  8  1  0
 16 17  1  0
 17 18  1  0
 18 19  2  0
 19 15  1  0
  1 12  2  0
 13 20  2  0
  8  9  1  0
 14 21  2  0
 11  4  2  0
 19 22  1  0
M  END
>  <MOLREGNO>
314702

>  <CHEMBLID>
CHEMBL187266

>  <SYNONYMS>
Tanshinone IIA

>  <MAX_PHASE>
0

>  <MOLWEIGHT>
294.34

>  <ALOGP>
4.66

>  <PSA>
47.28

>  <HBA>
2

>  <HBD>
0

>  <RO5>
0

>  <RTB>
0

>  <RO3>
N

>  <ACD_MOST_APKA>


>  <ACD_MOST_BPKA>


>  <ACD_LOGP>
4.93

>  <ACD_LOGD>
4.93

>  <AROMATIC_RINGS>
2

>  <HEAVY_ATOMS>
22

>  <QED_WEIGHTED>
.66

>  <HBA_LIPINSKI>
3

>  <HBD_LIPINSKI>
0

>  <NUM_LIPINSKI_RO5_VIOLATIONS>
0

>  <MW_MONOISOTOPIC>
294.1256

>  <MOLECULAR_SPECIES>


>  <FULL_MOLFORMULA>
C19H18O3

$$$$

  SciTegic01161211232D

 21 24  0  0  0  0            999 V2000
   -0.4158   -6.4968    0.0000 C   0  0
   -1.1230   -6.9116    0.0000 C   0  0
   -1.8379   -6.5076    0.0000 C   0  0
   -1.8456   -5.6769    0.0000 C   0  0
   -2.5650   -5.2704    0.0000 C   0  0
   -3.2813   -5.6903    0.0000 C   0  0
   -3.2735   -6.5211    0.0000 C   0  0
   -2.5495   -6.9319    0.0000 C   0  0
   -1.1331   -5.2647    0.0000 C   0  0
   -0.4158   -5.6722    0.0000 C   0  0
   -0.4289   -4.0250    0.0000 C   0  0
   -1.1428   -4.4419    0.0000 C   0  0
    0.2884   -4.4326    0.0000 C   0  0
    0.2913   -5.2572    0.0000 C   0  0
    1.0764   -5.5092    0.0000 O   0  0
    1.5589   -4.8404    0.0000 C   0  0
    1.0718   -4.1750    0.0000 C   0  0
   -0.4339   -3.1988    0.0000 O   0  0
   -1.8617   -4.0348    0.0000 O   0  0
    1.3243   -3.3884    0.0000 C   0  0
   -2.5406   -7.7581    0.0000 C   0  0
  9  4  2  0
  3  2  2  0
  9 12  1  0
 10 14  1  0
 13 11  1  0
 11 12  1  0
 13 14  2  0
  2  1  1  0
  3  4  1  0
  3  8  1  0
  4  5  1  0
  5  6  2  0
 14 15  1  0
 15 16  1  0
 16 17  2  0
 17 13  1  0
  6  7  1  0
 11 18  2  0
  7  8  2  0
 12 19  2  0
  9 10  1  0
 17 20  1  0
  1 10  2  0
  8 21  1  0
M  END
>  <MOLREGNO>
314701

>  <CHEMBLID>
CHEMBL363535

>  <SYNONYMS>
Tanshinone I

>  <MAX_PHASE>
0

>  <MOLWEIGHT>
276.29

>  <ALOGP>
4.08

>  <PSA>
47.28

>  <HBA>
2

>  <HBD>
0

>  <RO5>
0

>  <RTB>
0

>  <RO3>
N

>  <ACD_MOST_APKA>


>  <ACD_MOST_BPKA>


>  <ACD_LOGP>
4.31

>  <ACD_LOGD>
4.31

>  <AROMATIC_RINGS>
3

>  <HEAVY_ATOMS>
21

>  <QED_WEIGHTED>
.58

>  <HBA_LIPINSKI>
3

>  <HBD_LIPINSKI>
0

>  <NUM_LIPINSKI_RO5_VIOLATIONS>
0

>  <MW_MONOISOTOPIC>
276.0786

>  <MOLECULAR_SPECIES>


>  <FULL_MOLFORMULA>
C18H12O3

$$$$

  SciTegic01161211222D

 21 24  0  0  0  0            999 V2000
    7.9368   -0.2755    0.0000 C   0  0
    7.2297   -0.6902    0.0000 C   0  0
    6.5150   -0.2863    0.0000 C   0  0
    6.5072    0.5444    0.0000 C   0  0
    5.7879    0.9508    0.0000 C   0  0
    5.0718    0.5310    0.0000 C   0  0
    5.0795   -0.2997    0.0000 C   0  0
    5.8034   -0.7105    0.0000 C   0  0
    7.2196    0.9566    0.0000 C   0  0
    7.9369    0.5491    0.0000 C   0  0
    7.9237    2.1961    0.0000 C   0  0
    7.2100    1.7792    0.0000 C   0  0
    8.6411    1.7886    0.0000 C   0  0
    8.6440    0.9641    0.0000 C   0  0
    9.4290    0.7120    0.0000 O   0  0
    9.9113    1.3808    0.0000 C   0  0
    9.4243    2.0461    0.0000 C   0  0  2  0  0  0
    7.9188    3.0222    0.0000 O   0  0
    6.4911    2.1863    0.0000 O   0  0
    9.6768    2.8326    0.0000 C   0  0
    5.8122   -1.5366    0.0000 C   0  0
  9  4  2  0
  3  2  2  0
  9 12  1  0
 10 14  1  0
 13 11  1  0
 11 12  1  0
 13 14  2  0
  2  1  1  0
  3  4  1  0
  3  8  1  0
  4  5  1  0
  5  6  2  0
 14 15  1  0
 15 16  1  0
 16 17  1  0
 17 13  1  0
  6  7  1  0
 11 18  2  0
  7  8  2  0
 12 19  2  0
  9 10  1  0
 17 20  1  1
  1 10  2  0
  8 21  1  0
M  END
>  <MOLREGNO>
382969

>  <CHEMBLID>
CHEMBL227075

>  <SYNONYMS>
Dihydrotanshinone I | Dihydrotanshinone

>  <MAX_PHASE>
0

>  <MOLWEIGHT>
278.3

>  <ALOGP>
3.18

>  <PSA>
43.37

>  <HBA>
3

>  <HBD>
0

>  <RO5>
0

>  <RTB>
0

>  <RO3>
N

>  <ACD_MOST_APKA>


>  <ACD_MOST_BPKA>


>  <ACD_LOGP>
3.68

>  <ACD_LOGD>
3.68

>  <AROMATIC_RINGS>
2

>  <HEAVY_ATOMS>
21

>  <QED_WEIGHTED>
.7

>  <HBA_LIPINSKI>
3

>  <HBD_LIPINSKI>
0

>  <NUM_LIPINSKI_RO5_VIOLATIONS>
0

>  <MW_MONOISOTOPIC>
278.0943

>  <MOLECULAR_SPECIES>


>  <FULL_MOLFORMULA>
C18H14O3

$$$$

  SciTegic01161211222D

 22 25  0  0  0  0            999 V2000
   -0.6286   -0.2129    0.0000 C   0  0
   -1.3358   -0.6277    0.0000 C   0  0
   -2.0508   -0.2237    0.0000 C   0  0
   -2.0585    0.6071    0.0000 C   0  0
   -2.7779    1.0136    0.0000 C   0  0
   -3.4942    0.5937    0.0000 C   0  0
   -3.4865   -0.2371    0.0000 C   0  0
   -2.7624   -0.6480    0.0000 C   0  0
   -3.1838   -1.3603    0.0000 C   0  0
   -2.3576   -1.3603    0.0000 C   0  0
   -1.3460    1.0193    0.0000 C   0  0
   -0.6286    0.6118    0.0000 C   0  0
   -0.6417    2.2590    0.0000 C   0  0
   -1.3557    1.8421    0.0000 C   0  0
    0.0756    1.8514    0.0000 C   0  0
    0.0785    1.0268    0.0000 C   0  0
    0.8637    0.7747    0.0000 O   0  0
    1.3462    1.4436    0.0000 C   0  0
    0.8590    2.1090    0.0000 C   0  0  2  0  0  0
   -0.6467    3.0852    0.0000 O   0  0
   -2.0746    2.2492    0.0000 O   0  0
    1.1115    2.8956    0.0000 C   0  0
  8 10  1  0
 11 12  1  0
  3  2  2  0
  2  1  1  0
  3  4  1  0
 11 14  1  0
 12 16  1  0
 15 13  1  0
 13 14  1  0
 15 16  2  0
  3  8  1  0
  4  5  1  0
  5  6  1  0
  6  7  1  0
  7  8  1  0
 16 17  1  0
 17 18  1  0
 18 19  1  0
 19 15  1  0
  1 12  2  0
 13 20  2  0
  8  9  1  0
 14 21  2  0
 11  4  2  0
 19 22  1  1
M  END
>  <MOLREGNO>
314493

>  <CHEMBLID>
CHEMBL187460

>  <SYNONYMS>
Cryptotanshinone

>  <MAX_PHASE>
0

>  <MOLWEIGHT>
296.36

>  <ALOGP>
3.76

>  <PSA>
43.37

>  <HBA>
3

>  <HBD>
0

>  <RO5>
0

>  <RTB>
0

>  <RO3>
N

>  <ACD_MOST_APKA>


>  <ACD_MOST_BPKA>


>  <ACD_LOGP>
4.13

>  <ACD_LOGD>
4.13

>  <AROMATIC_RINGS>
1

>  <HEAVY_ATOMS>
22

>  <QED_WEIGHTED>
.69

>  <HBA_LIPINSKI>
3

>  <HBD_LIPINSKI>
0

>  <NUM_LIPINSKI_RO5_VIOLATIONS>
0

>  <MW_MONOISOTOPIC>
296.1412

>  <MOLECULAR_SPECIES>


>  <FULL_MOLFORMULA>
C19H20O3

$$$$

  CDK    6/4/10,11:42

 21 23  0  0  0  0  0  0  0  0999 V2000
    6.0527   -4.6884    0.0000 C   0  0  0  0  0  0  0  0  0  0  0  0
    6.0515   -5.5152    0.0000 C   0  0  0  0  0  0  0  0  0  0  0  0
    6.7659   -5.9278    0.0000 C   0  0  0  0  0  0  0  0  0  0  0  0
    6.7641   -4.2759    0.0000 C   0  0  0  0  0  0  0  0  0  0  0  0
    7.4789   -4.6848    0.0000 C   0  0  0  0  0  0  0  0  0  0  0  0
    7.4777   -5.5173    0.0000 C   0  0  0  0  0  0  0  0  0  0  0  0
    8.1941   -5.9322    0.0000 C   0  0  0  0  0  0  0  0  0  0  0  0
    8.9163   -5.5193    0.0000 C   0  0  0  0  0  0  0  0  0  0  0  0
    8.9175   -4.6869    0.0000 C   0  0  0  0  0  0  0  0  0  0  0  0
    8.1965   -4.2672    0.0000 O   0  0  0  0  0  0  0  0  0  0  0  0
    9.6252   -5.9333    0.0000 C   0  0  0  0  0  0  0  0  0  0  0  0
    9.6215   -6.7589    0.0000 C   0  0  0  0  0  0  0  0  0  0  0  0
   10.3335   -7.1730    0.0000 C   0  0  0  0  0  0  0  0  0  0  0  0
   11.0496   -6.7628    0.0000 C   0  0  0  0  0  0  0  0  0  0  0  0
   11.0493   -5.9341    0.0000 C   0  0  0  0  0  0  0  0  0  0  0  0
   10.3367   -5.5237    0.0000 C   0  0  0  0  0  0  0  0  0  0  0  0
    8.1918   -6.7566    0.0000 O   0  0  0  0  0  0  0  0  0  0  0  0
   11.7631   -7.1760    0.0000 O   0  0  0  0  0  0  0  0  0  0  0  0
    5.3386   -4.2763    0.0000 O   0  0  0  0  0  0  0  0  0  0  0  0
    5.3372   -5.9268    0.0000 O   0  0  0  0  0  0  0  0  0  0  0  0
    4.6236   -5.5141    0.0000 C   0  0  0  0  0  0  0  0  0  0  0  0
  9 10  1  0  0  0  0 
  5  6  1  0  0  0  0 
 11 12  2  0  0  0  0 
  2  3  1  0  0  0  0 
 12 13  1  0  0  0  0 
  3  6  2  0  0  0  0 
 13 14  2  0  0  0  0 
  1  2  2  0  0  0  0 
 14 15  1  0  0  0  0 
  5  4  2  0  0  0  0 
 15 16  2  0  0  0  0 
 16 11  1  0  0  0  0 
  8 11  1  0  0  0  0 
  4  1  1  0  0  0  0 
  7 17  2  0  0  0  0 
  5 10  1  0  0  0  0 
 14 18  1  0  0  0  0 
  6  7  1  0  0  0  0 
  1 19  1  0  0  0  0 
  7  8  1  0  0  0  0 
  2 20  1  0  0  0  0 
  8  9  2  0  0  0  0 
 20 21  1  0  0  0  0 
M  END
>  <MOLREGNO>
442494

>  <CHEMBLID>
CHEMBL513024

>  <SYNONYMS>
Glycitein

>  <MAX_PHASE>
0

>  <MOLWEIGHT>
284.26

>  <ALOGP>
2.37

>  <PSA>
75.99

>  <HBA>
5

>  <HBD>
2

>  <RO5>
0

>  <RTB>
2

>  <RO3>
N

>  <ACD_MOST_APKA>
7.03

>  <ACD_MOST_BPKA>


>  <ACD_LOGP>
2.55

>  <ACD_LOGD>
2.04

>  <AROMATIC_RINGS>
2

>  <HEAVY_ATOMS>
21

>  <QED_WEIGHTED>
.89

>  <HBA_LIPINSKI>
5

>  <HBD_LIPINSKI>
2

>  <NUM_LIPINSKI_RO5_VIOLATIONS>
0

>  <MW_MONOISOTOPIC>
284.0685

>  <MOLECULAR_SPECIES>
NEUTRAL

>  <FULL_MOLFORMULA>
C16H12O5

$$$$

  Mrv0541 04051115152D          

 30 33  0  0  0  0            999 V2000
   -4.9723    0.8259    0.0000 O   0  0  0  0  0  0  0  0  0  0  0  0
   -4.2578    1.2384    0.0000 C   0  0  0  0  0  0  0  0  0  0  0  0
   -3.5434    0.8259    0.0000 C   0  0  1  0  0  0  0  0  0  0  0  0
   -2.8289    1.2384    0.0000 O   0  0  0  0  0  0  0  0  0  0  0  0
   -3.5434    0.0009    0.0000 C   0  0  1  0  0  0  0  0  0  0  0  0
   -4.2578   -0.4116    0.0000 O   0  0  0  0  0  0  0  0  0  0  0  0
   -2.8289   -0.4116    0.0000 C   0  0  2  0  0  0  0  0  0  0  0  0
   -2.8289   -1.2366    0.0000 O   0  0  0  0  0  0  0  0  0  0  0  0
   -2.1144    0.0009    0.0000 C   0  0  1  0  0  0  0  0  0  0  0  0
   -1.4000   -0.4116    0.0000 O   0  0  0  0  0  0  0  0  0  0  0  0
   -2.1144    0.8259    0.0000 C   0  0  2  0  0  0  0  0  0  0  0  0
   -1.4000    1.2384    0.0000 O   0  0  0  0  0  0  0  0  0  0  0  0
   -0.6855    0.8259    0.0000 C   0  0  0  0  0  0  0  0  0  0  0  0
   -0.6855    0.0009    0.0000 C   0  0  0  0  0  0  0  0  0  0  0  0
    0.0290   -0.4116    0.0000 C   0  0  0  0  0  0  0  0  0  0  0  0
    0.7435    0.0009    0.0000 C   0  0  0  0  0  0  0  0  0  0  0  0
    0.7435    0.8259    0.0000 C   0  0  0  0  0  0  0  0  0  0  0  0
    0.0290    1.2384    0.0000 C   0  0  0  0  0  0  0  0  0  0  0  0
    1.4579    1.2384    0.0000 O   0  0  0  0  0  0  0  0  0  0  0  0
    2.1724    0.8259    0.0000 C   0  0  0  0  0  0  0  0  0  0  0  0
    2.1724    0.0009    0.0000 C   0  0  0  0  0  0  0  0  0  0  0  0
    1.4579   -0.4116    0.0000 C   0  0  0  0  0  0  0  0  0  0  0  0
    1.4579   -1.2366    0.0000 O   0  0  0  0  0  0  0  0  0  0  0  0
    2.8869   -0.4116    0.0000 C   0  0  0  0  0  0  0  0  0  0  0  0
    3.6013    0.0009    0.0000 C   0  0  0  0  0  0  0  0  0  0  0  0
    4.3158   -0.4116    0.0000 C   0  0  0  0  0  0  0  0  0  0  0  0
    4.3158   -1.2366    0.0000 C   0  0  0  0  0  0  0  0  0  0  0  0
    5.0303   -1.6491    0.0000 O   0  0  0  0  0  0  0  0  0  0  0  0
    3.6013   -1.6491    0.0000 C   0  0  0  0  0  0  0  0  0  0  0  0
    2.8869   -1.2366    0.0000 C   0  0  0  0  0  0  0  0  0  0  0  0
  2  1  1  0  0  0  0
  3  2  1  1  0  0  0
  3  4  1  0  0  0  0
  5  3  1  0  0  0  0
 11  4  1  0  0  0  0
  5  6  1  6  0  0  0
  7  5  1  0  0  0  0
  7  8  1  1  0  0  0
  9  7  1  0  0  0  0
  9 10  1  6  0  0  0
 11  9  1  0  0  0  0
 11 12  1  1  0  0  0
 13 12  1  0  0  0  0
 13 14  2  0  0  0  0
 13 18  1  0  0  0  0
 14 15  1  0  0  0  0
 15 16  2  0  0  0  0
 16 17  1  0  0  0  0
 16 22  1  0  0  0  0
 17 18  2  0  0  0  0
 17 19  1  0  0  0  0
 20 19  1  0  0  0  0
 20 21  2  0  0  0  0
 21 22  1  0  0  0  0
 21 24  1  0  0  0  0
 22 23  2  0  0  0  0
 24 25  2  0  0  0  0
 24 30  1  0  0  0  0
 25 26  1  0  0  0  0
 26 27  2  0  0  0  0
 27 28  1  0  0  0  0
 27 29  1  0  0  0  0
 29 30  2  0  0  0  0
M  END
>  <MOLREGNO>
445821

>  <CHEMBLID>
CHEMBL486422

>  <SYNONYMS>
Dadzin | Daidzin

>  <MAX_PHASE>
0

>  <MOLWEIGHT>
416.38

>  <ALOGP>
.45

>  <PSA>
145.91

>  <HBA>
9

>  <HBD>
5

>  <RO5>
0

>  <RTB>
4

>  <RO3>
N

>  <ACD_MOST_APKA>
9.65

>  <ACD_MOST_BPKA>


>  <ACD_LOGP>
.37

>  <ACD_LOGD>
.37

>  <AROMATIC_RINGS>
2

>  <HEAVY_ATOMS>
30

>  <QED_WEIGHTED>
.48

>  <HBA_LIPINSKI>
9

>  <HBD_LIPINSKI>
5

>  <NUM_LIPINSKI_RO5_VIOLATIONS>
0

>  <MW_MONOISOTOPIC>
416.1107

>  <MOLECULAR_SPECIES>
NEUTRAL

>  <FULL_MOLFORMULA>
C21H20O9

$$$$

  CDK    8/10/10,12:22

 19 21  0  0  0  0  0  0  0  0999 V2000
    7.8542   -6.5042    0.0000 C   0  0  0  0  0  0  0  0  0  0  0  0
    7.1375   -6.9250    0.0000 C   0  0  0  0  0  0  0  0  0  0  0  0
    6.4167   -6.5167    0.0000 C   0  0  0  0  0  0  0  0  0  0  0  0
    7.8542   -5.6750    0.0000 C   0  0  0  0  0  0  0  0  0  0  0  0
    6.4167   -5.6792    0.0000 C   0  0  0  0  0  0  0  0  0  0  0  0
    7.1292   -5.2625    0.0000 O   0  0  0  0  0  0  0  0  0  0  0  0
    8.5667   -6.9167    0.0000 C   0  0  0  0  0  0  0  0  0  0  0  0
    5.7000   -6.9250    0.0000 C   0  0  0  0  0  0  0  0  0  0  0  0
    5.7000   -5.2750    0.0000 C   0  0  0  0  0  0  0  0  0  0  0  0
    7.1417   -7.7500    0.0000 O   0  0  0  0  0  0  0  0  0  0  0  0
    9.2792   -6.5042    0.0000 C   0  0  0  0  0  0  0  0  0  0  0  0
    8.5667   -7.7417    0.0000 C   0  0  0  0  0  0  0  0  0  0  0  0
    4.9917   -5.6875    0.0000 C   0  0  0  0  0  0  0  0  0  0  0  0
    4.9875   -6.5125    0.0000 C   0  0  0  0  0  0  0  0  0  0  0  0
   10.0000   -7.7375    0.0000 C   0  0  0  0  0  0  0  0  0  0  0  0
    9.2792   -8.1542    0.0000 C   0  0  0  0  0  0  0  0  0  0  0  0
    9.9917   -6.9125    0.0000 C   0  0  0  0  0  0  0  0  0  0  0  0
    4.2750   -5.2750    0.0000 O   0  0  0  0  0  0  0  0  0  0  0  0
   10.7083   -8.1500    0.0000 O   0  0  0  0  0  0  0  0  0  0  0  0
  2  1  1  0  0  0  0 
  3  2  1  0  0  0  0 
  4  1  2  0  0  0  0 
  5  6  1  0  0  0  0 
  6  4  1  0  0  0  0 
  7  1  1  0  0  0  0 
  8  3  2  0  0  0  0 
  9  5  2  0  0  0  0 
 10  2  2  0  0  0  0 
 11  7  1  0  0  0  0 
 12  7  2  0  0  0  0 
 13  9  1  0  0  0  0 
 14  8  1  0  0  0  0 
 15 16  2  0  0  0  0 
 16 12  1  0  0  0  0 
 17 11  2  0  0  0  0 
 18 13  1  0  0  0  0 
 19 15  1  0  0  0  0 
 17 15  1  0  0  0  0 
  5  3  1  0  0  0  0 
 13 14  2  0  0  0  0 
M  END
>  <MOLREGNO>
3281

>  <CHEMBLID>
CHEMBL8145

>  <SYNONYMS>
DAIDZEIN | DIHYDROXYFLAVONE

>  <MAX_PHASE>
0

>  <MOLWEIGHT>
254.24

>  <ALOGP>
2.38

>  <PSA>
66.76

>  <HBA>
4

>  <HBD>
2

>  <RO5>
0

>  <RTB>
1

>  <RO3>
N

>  <ACD_MOST_APKA>
7.01

>  <ACD_MOST_BPKA>


>  <ACD_LOGP>
2.63

>  <ACD_LOGD>
2.11

>  <AROMATIC_RINGS>
2

>  <HEAVY_ATOMS>
19

>  <QED_WEIGHTED>
.82

>  <HBA_LIPINSKI>
4

>  <HBD_LIPINSKI>
2

>  <NUM_LIPINSKI_RO5_VIOLATIONS>
0

>  <MW_MONOISOTOPIC>
254.0579

>  <MOLECULAR_SPECIES>
NEUTRAL

>  <FULL_MOLFORMULA>
C15H10O4

$$$$

  Mrv0541 04051115152D          

 20 22  0  0  0  0            999 V2000
   -1.6957   -1.4257    0.0000 C   0  0  0  0  0  0  0  0  0  0  0  0
   -2.4102   -1.0132    0.0000 C   0  0  0  0  0  0  0  0  0  0  0  0
   -3.1247   -1.4257    0.0000 O   0  0  0  0  0  0  0  0  0  0  0  0
   -2.4102   -0.1882    0.0000 C   0  0  0  0  0  0  0  0  0  0  0  0
   -1.6957    0.2243    0.0000 C   0  0  0  0  0  0  0  0  0  0  0  0
   -1.6957    1.0493    0.0000 O   0  0  0  0  0  0  0  0  0  0  0  0
   -0.9813   -0.1882    0.0000 C   0  0  0  0  0  0  0  0  0  0  0  0
   -0.2668    0.2243    0.0000 C   0  0  0  0  0  0  0  0  0  0  0  0
   -0.2668    1.0493    0.0000 O   0  0  0  0  0  0  0  0  0  0  0  0
    0.4477   -0.1882    0.0000 C   0  0  0  0  0  0  0  0  0  0  0  0
    0.4477   -1.0132    0.0000 C   0  0  0  0  0  0  0  0  0  0  0  0
   -0.2668   -1.4257    0.0000 O   0  0  0  0  0  0  0  0  0  0  0  0
   -0.9813   -1.0132    0.0000 C   0  0  0  0  0  0  0  0  0  0  0  0
    1.1621    0.2243    0.0000 C   0  0  0  0  0  0  0  0  0  0  0  0
    1.1621    1.0493    0.0000 C   0  0  0  0  0  0  0  0  0  0  0  0
    1.8766    1.4618    0.0000 C   0  0  0  0  0  0  0  0  0  0  0  0
    2.5911    1.0493    0.0000 C   0  0  0  0  0  0  0  0  0  0  0  0
    3.3055    1.4618    0.0000 O   0  0  0  0  0  0  0  0  0  0  0  0
    2.5911    0.2243    0.0000 C   0  0  0  0  0  0  0  0  0  0  0  0
    1.8766   -0.1882    0.0000 C   0  0  0  0  0  0  0  0  0  0  0  0
  1  2  2  0  0  0  0
  1 13  1  0  0  0  0
  2  3  1  0  0  0  0
  2  4  1  0  0  0  0
  4  5  2  0  0  0  0
  5  6  1  0  0  0  0
  5  7  1  0  0  0  0
  7  8  1  0  0  0  0
 13  7  2  0  0  0  0
  8  9  2  0  0  0  0
  8 10  1  0  0  0  0
 10 11  2  0  0  0  0
 14 10  1  0  0  0  0
 11 12  1  0  0  0  0
 13 12  1  0  0  0  0
 14 15  2  0  0  0  0
 14 20  1  0  0  0  0
 15 16  1  0  0  0  0
 16 17  2  0  0  0  0
 17 18  1  0  0  0  0
 17 19  1  0  0  0  0
 19 20  2  0  0  0  0
M  END
>  <MOLREGNO>
2658

>  <CHEMBLID>
CHEMBL44

>  <SYNONYMS>
NSC-36586

>  <MAX_PHASE>
0

>  <MOLWEIGHT>
270.24

>  <ALOGP>
2.14

>  <PSA>
86.99

>  <HBA>
5

>  <HBD>
3

>  <RO5>
0

>  <RTB>
1

>  <RO3>
N

>  <ACD_MOST_APKA>
6.51

>  <ACD_MOST_BPKA>


>  <ACD_LOGP>
3.11

>  <ACD_LOGD>
1.93

>  <AROMATIC_RINGS>
2

>  <HEAVY_ATOMS>
20

>  <QED_WEIGHTED>
.74

>  <HBA_LIPINSKI>
5

>  <HBD_LIPINSKI>
3

>  <NUM_LIPINSKI_RO5_VIOLATIONS>
0

>  <MW_MONOISOTOPIC>
270.0528

>  <MOLECULAR_SPECIES>
NEUTRAL

>  <FULL_MOLFORMULA>
C15H10O5

$$$$

  CDK    10/15/10,16:46

 31 34  0  0  0  0  0  0  0  0999 V2000
    9.8833    0.2875    0.0000 C   0  0  0  0  0  0  0  0  0  0  0  0
    9.1667    0.7000    0.0000 C   0  0  0  0  0  0  0  0  0  0  0  0
   10.6083    0.7000    0.0000 C   0  0  0  0  0  0  0  0  0  0  0  0
    6.3125    1.5292    0.0000 C   0  0  0  0  0  0  0  0  0  0  0  0
    6.3125    0.7042    0.0000 C   0  0  0  0  0  0  0  0  0  0  0  0
    9.1708    1.5333    0.0000 C   0  0  0  0  0  0  0  0  0  0  0  0
    5.6000    0.2917    0.0000 C   0  0  0  0  0  0  0  0  0  0  0  0
    5.6000    1.9417    0.0000 O   0  0  0  0  0  0  0  0  0  0  0  0
    8.4542    0.2917    0.0000 C   0  0  0  0  0  0  0  0  0  0  0  0
   10.6083    1.5333    0.0000 C   0  0  0  0  0  0  0  0  0  0  0  0
    4.8833    0.7042    0.0000 C   0  0  0  0  0  0  0  0  0  0  0  0
    4.8833    1.5292    0.0000 C   0  0  0  0  0  0  0  0  0  0  0  0
    9.8875    1.9542    0.0000 O   0  0  0  0  0  0  0  0  0  0  0  0
    7.7417    1.5333    0.0000 C   0  0  0  0  0  0  0  0  0  0  0  0
    8.4542    1.9458    0.0000 C   0  0  0  0  0  0  0  0  0  0  0  0
    7.0292    1.9417    0.0000 O   0  0  0  0  0  0  0  0  0  0  0  0
    7.7417    0.7042    0.0000 C   0  0  0  0  0  0  0  0  0  0  0  0
   11.3208    0.2833    0.0000 C   0  0  0  0  0  0  0  0  0  0  0  0
    9.8833   -0.5375    0.0000 O   0  0  0  0  0  0  0  0  0  0  0  0
    7.0292    0.2917    0.0000 O   0  0  0  0  0  0  0  0  0  0  0  0
   11.3208   -0.5333    0.0000 C   0  0  0  0  0  0  0  0  0  0  0  0
   12.0333    0.6958    0.0000 C   0  0  0  0  0  0  0  0  0  0  0  0
    5.6000   -0.5333    0.0000 O   0  0  0  0  0  0  0  0  0  0  0  0
    8.4542   -0.5333    0.0000 O   0  0  0  0  0  0  0  0  0  0  0  0
    4.1708    0.2917    0.0000 O   0  0  0  0  0  0  0  0  0  0  0  0
   12.7500   -0.5417    0.0000 C   0  0  0  0  0  0  0  0  0  0  0  0
   12.0333   -0.9542    0.0000 C   0  0  0  0  0  0  0  0  0  0  0  0
   12.7500    0.2833    0.0000 C   0  0  0  0  0  0  0  0  0  0  0  0
    4.1708    1.9417    0.0000 C   0  0  0  0  0  0  0  0  0  0  0  0
   13.4625   -0.9583    0.0000 O   0  0  0  0  0  0  0  0  0  0  0  0
    4.1708    2.7667    0.0000 O   0  0  0  0  0  0  0  0  0  0  0  0
  2  1  1  0  0  0  0 
  3  1  1  0  0  0  0 
  4 16  1  1  0  0  0 
  5  4  1  0  0  0  0 
  6  2  1  0  0  0  0 
  7  5  1  0  0  0  0 
  8  4  1  0  0  0  0 
  9  2  2  0  0  0  0 
 10  3  2  0  0  0  0 
 11  7  1  0  0  0  0 
 12  8  1  0  0  0  0 
 13 10  1  0  0  0  0 
 14 15  1  0  0  0  0 
 15  6  2  0  0  0  0 
 16 14  1  0  0  0  0 
 17  9  1  0  0  0  0 
 18  3  1  0  0  0  0 
 19  1  2  0  0  0  0 
  5 20  1  6  0  0  0 
 21 18  1  0  0  0  0 
 22 18  2  0  0  0  0 
  7 23  1  1  0  0  0 
 24  9  1  0  0  0  0 
 11 25  1  6  0  0  0 
 26 27  1  0  0  0  0 
 27 21  2  0  0  0  0 
 28 22  1  0  0  0  0 
 12 29  1  1  0  0  0 
 30 26  1  0  0  0  0 
 31 29  1  0  0  0  0 
 13  6  1  0  0  0  0 
 17 14  2  0  0  0  0 
 28 26  2  0  0  0  0 
 12 11  1  0  0  0  0 
M  END
>  <MOLREGNO>
445834

>  <CHEMBLID>
CHEMBL486625

>  <SYNONYMS>
Genistin

>  <MAX_PHASE>
0

>  <MOLWEIGHT>
432.38

>  <ALOGP>
.21

>  <PSA>
166.14

>  <HBA>
10

>  <HBD>
6

>  <RO5>
1

>  <RTB>
4

>  <RO3>
N

>  <ACD_MOST_APKA>
6.12

>  <ACD_MOST_BPKA>


>  <ACD_LOGP>
.94

>  <ACD_LOGD>
-.35

>  <AROMATIC_RINGS>
2

>  <HEAVY_ATOMS>
31

>  <QED_WEIGHTED>
.39

>  <HBA_LIPINSKI>
10

>  <HBD_LIPINSKI>
6

>  <NUM_LIPINSKI_RO5_VIOLATIONS>
1

>  <MW_MONOISOTOPIC>
432.1056

>  <MOLECULAR_SPECIES>
ACID

>  <FULL_MOLFORMULA>
C21H20O10

$$$$

  CDK    9/16/09,9:20

 33 36  0  0  0  0  0  0  0  0999 V2000
   12.6614  -25.8521    0.0000 C   0  0  0  0  0  0  0  0  0  0  0  0
   12.6614  -25.0271    0.0000 C   0  0  0  0  0  0  0  0  0  0  0  0
   13.3731  -24.6146    0.0000 C   0  0  0  0  0  0  0  0  0  0  0  0
   13.3731  -26.2646    0.0000 C   0  0  0  0  0  0  0  0  0  0  0  0
   14.0890  -25.8521    0.0000 C   0  0  0  0  0  0  0  0  0  0  0  0
   14.8048  -26.2646    0.0000 C   0  0  0  0  0  0  0  0  0  0  0  0
   15.5207  -25.8521    0.0000 C   0  0  0  0  0  0  0  0  0  0  0  0
   15.5207  -25.0271    0.0000 C   0  0  0  0  0  0  0  0  0  0  0  0
   16.2324  -24.6146    0.0000 C   0  0  0  0  0  0  0  0  0  0  0  0
   17.0170  -24.8675    0.0000 C   0  0  0  0  0  0  0  0  0  0  0  0
   17.5018  -24.2021    0.0000 C   0  0  0  0  0  0  0  0  0  0  0  0
   17.0170  -23.5325    0.0000 C   0  0  0  0  0  0  0  0  0  0  0  0
   17.2741  -22.7478    0.0000 C   0  0  0  0  0  0  0  0  0  0  0  0
   16.6903  -22.1639    0.0000 C   0  0  0  0  0  0  0  0  0  0  0  0
   16.9013  -21.3690    0.0000 C   0  0  0  0  0  0  0  0  0  0  0  0
   17.7004  -21.1538    0.0000 C   0  0  0  0  0  0  0  0  0  0  0  0
   18.2842  -21.7377    0.0000 C   0  0  0  0  0  0  0  0  0  0  0  0
   17.9156  -20.3589    0.0000 C   0  0  0  0  0  0  0  0  0  0  0  0
   18.7105  -20.1437    0.0000 C   0  0  0  0  0  0  0  0  0  0  0  0
   17.3317  -19.7750    0.0000 C   0  0  0  0  0  0  0  0  0  0  0  0
   18.0802  -22.5754    0.0000 C   0  0  0  0  0  0  0  0  0  0  0  0
   16.2324  -23.7896    0.0000 C   0  0  0  0  0  0  0  0  0  0  0  0
   16.2324  -22.9646    0.0000 C   0  0  0  0  0  0  0  0  0  0  0  0
   15.5207  -23.3771    0.0000 C   0  0  0  0  0  0  0  0  0  0  0  0
   14.8048  -23.7896    0.0000 C   0  0  0  0  0  0  0  0  0  0  0  0
   14.8048  -24.6146    0.0000 C   0  0  0  0  0  0  0  0  0  0  0  0
   14.0890  -25.0271    0.0000 C   0  0  0  0  0  0  0  0  0  0  0  0
   14.0890  -24.2021    0.0000 C   0  0  0  0  0  0  0  0  0  0  0  0
   11.9455  -26.2646    0.0000 O   0  0  0  0  0  0  0  0  0  0  0  0
   14.8048  -25.4396    0.0000 H   0  0  0  0  0  0  0  0  0  0  0  0
   15.5207  -24.2021    0.0000 H   0  0  0  0  0  0  0  0  0  0  0  0
   16.2324  -25.4396    0.0000 H   0  0  0  0  0  0  0  0  0  0  0  0
   17.8125  -23.3125    0.0000 H   0  0  0  0  0  0  0  0  0  0  0  0
  1  2  1  0  0  0  0 
  2  3  1  0  0  0  0 
  1  4  1  0  0  0  0 
  4  5  1  0  0  0  0 
  5  6  2  0  0  0  0 
  6  7  1  0  0  0  0 
  7  8  1  0  0  0  0 
  8  9  1  0  0  0  0 
  9 10  1  0  0  0  0 
 10 11  1  0  0  0  0 
 12 11  1  0  0  0  0 
 12 13  1  0  0  0  0 
 13 14  1  0  0  0  0 
 14 15  1  0  0  0  0 
 15 16  1  0  0  0  0 
 16 17  1  6  0  0  0 
 16 18  1  0  0  0  0 
 18 19  1  0  0  0  0 
 18 20  1  0  0  0  0 
 13 21  1  1  0  0  0 
 12 22  1  0  0  0  0 
  9 22  1  0  0  0  0 
 22 23  1  1  0  0  0 
 22 24  1  0  0  0  0 
 24 25  1  0  0  0  0 
 25 26  1  0  0  0  0 
  8 26  1  0  0  0  0 
 26 27  1  0  0  0  0 
  3 27  1  0  0  0  0 
  5 27  1  0  0  0  0 
 27 28  1  1  0  0  0 
  1 29  1  1  0  0  0 
 26 30  1  6  0  0  0 
  8 31  1  1  0  0  0 
  9 32  1  6  0  0  0 
 12 33  1  6  0  0  0 
M  END
>  <MOLREGNO>
443924

>  <CHEMBLID>
CHEMBL520535

>  <SYNONYMS>
Campesterol

>  <MAX_PHASE>
0

>  <MOLWEIGHT>
400.68

>  <ALOGP>
7.63

>  <PSA>
20.23

>  <HBA>
1

>  <HBD>
1

>  <RO5>
1

>  <RTB>
5

>  <RO3>
N

>  <ACD_MOST_APKA>


>  <ACD_MOST_BPKA>


>  <ACD_LOGP>
9.97

>  <ACD_LOGD>
9.97

>  <AROMATIC_RINGS>
0

>  <HEAVY_ATOMS>
29

>  <QED_WEIGHTED>
.47

>  <HBA_LIPINSKI>
1

>  <HBD_LIPINSKI>
1

>  <NUM_LIPINSKI_RO5_VIOLATIONS>
1

>  <MW_MONOISOTOPIC>
400.3705

>  <MOLECULAR_SPECIES>
NEUTRAL

>  <FULL_MOLFORMULA>
C28H48O

$$$$

  CDK    10/7/09,10:42

 34 37  0  0  0  0  0  0  0  0999 V2000
   -1.3949  -11.8160    0.0000 C   0  0  0  0  0  0  0  0  0  0  0  0
   -1.3949  -10.9910    0.0000 C   0  0  0  0  0  0  0  0  0  0  0  0
   -0.6868  -10.5766    0.0000 C   0  0  0  0  0  0  0  0  0  0  0  0
   -0.6868  -12.2265    0.0000 C   0  0  0  0  0  0  0  0  0  0  0  0
    0.0295  -11.8160    0.0000 C   0  0  0  0  0  0  0  0  0  0  0  0
    0.7460  -12.2265    0.0000 C   0  0  0  0  0  0  0  0  0  0  0  0
    1.4582  -11.8160    0.0000 C   0  0  0  0  0  0  0  0  0  0  0  0
    1.4582  -10.9910    0.0000 C   0  0  0  0  0  0  0  0  0  0  0  0
    2.1745  -10.5766    0.0000 C   0  0  0  0  0  0  0  0  0  0  0  0
    2.9594  -10.8364    0.0000 C   0  0  0  0  0  0  0  0  0  0  0  0
    3.4417  -10.1661    0.0000 C   0  0  0  0  0  0  0  0  0  0  0  0
    2.9594   -9.4999    0.0000 C   0  0  0  0  0  0  0  0  0  0  0  0
    3.2152   -8.7150    0.0000 C   0  0  0  0  0  0  0  0  0  0  0  0
    4.0102   -8.5009    0.0000 C   0  0  0  0  0  0  0  0  0  0  0  0
    4.2202   -7.7060    0.0000 C   0  0  0  0  0  0  0  0  0  0  0  0
    5.0193   -7.4919    0.0000 C   0  0  0  0  0  0  0  0  0  0  0  0
    5.2376   -6.6968    0.0000 C   0  0  0  0  0  0  0  0  0  0  0  0
    6.0326   -6.4785    0.0000 C   0  0  0  0  0  0  0  0  0  0  0  0
    5.6045   -8.0728    0.0000 C   0  0  0  0  0  0  0  0  0  0  0  0
    5.3904   -8.8678    0.0000 C   0  0  0  0  0  0  0  0  0  0  0  0
    6.3994   -7.8587    0.0000 C   0  0  0  0  0  0  0  0  0  0  0  0
    2.6301   -8.1300    0.0000 C   0  0  0  0  0  0  0  0  0  0  0  0
    2.1745   -9.7516    0.0000 C   0  0  0  0  0  0  0  0  0  0  0  0
    2.1745   -8.9266    0.0000 C   0  0  0  0  0  0  0  0  0  0  0  0
    1.4582   -9.3411    0.0000 C   0  0  0  0  0  0  0  0  0  0  0  0
    0.7459   -9.7516    0.0000 C   0  0  0  0  0  0  0  0  0  0  0  0
    0.7459  -10.5766    0.0000 C   0  0  0  0  0  0  0  0  0  0  0  0
    0.0295  -10.9910    0.0000 C   0  0  0  0  0  0  0  0  0  0  0  0
    0.0295  -10.1661    0.0000 C   0  0  0  0  0  0  0  0  0  0  0  0
    0.7459  -11.4015    0.0000 H   0  0  0  0  0  0  0  0  0  0  0  0
    1.4582  -10.1661    0.0000 H   0  0  0  0  0  0  0  0  0  0  0  0
    2.1745  -11.4015    0.0000 H   0  0  0  0  0  0  0  0  0  0  0  0
    3.7814   -9.4434    0.0000 H   0  0  0  0  0  0  0  0  0  0  0  0
   -2.1113  -12.2265    0.0000 O   0  0  0  0  0  0  0  0  0  0  0  0
  1  2  1  0  0  0  0 
  2  3  1  0  0  0  0 
  1  4  1  0  0  0  0 
  4  5  1  0  0  0  0 
  5  6  2  0  0  0  0 
  6  7  1  0  0  0  0 
  7  8  1  0  0  0  0 
  8  9  1  0  0  0  0 
  9 10  1  0  0  0  0 
 10 11  1  0  0  0  0 
 11 12  1  0  0  0  0 
 12 13  1  0  0  0  0 
 13 14  1  0  0  0  0 
 14 15  2  0  0  0  0 
 15 16  1  0  0  0  0 
 16 17  1  1  0  0  0 
 17 18  1  0  0  0  0 
 16 19  1  0  0  0  0 
 19 20  1  0  0  0  0 
 19 21  1  0  0  0  0 
 13 22  1  6  0  0  0 
 12 23  1  0  0  0  0 
  9 23  1  0  0  0  0 
 23 24  1  1  0  0  0 
 23 25  1  0  0  0  0 
 25 26  1  0  0  0  0 
 26 27  1  0  0  0  0 
  8 27  1  0  0  0  0 
 27 28  1  0  0  0  0 
  3 28  1  0  0  0  0 
  5 28  1  0  0  0  0 
 28 29  1  1  0  0  0 
 27 30  1  6  0  0  0 
  8 31  1  1  0  0  0 
  9 32  1  6  0  0  0 
 12 33  1  6  0  0  0 
  1 34  1  1  0  0  0 
M  END
>  <MOLREGNO>
419380

>  <CHEMBLID>
CHEMBL400247

>  <SYNONYMS>
stigmasterol

>  <MAX_PHASE>
0

>  <MOLWEIGHT>
412.69

>  <ALOGP>
7.64

>  <PSA>
20.23

>  <HBA>
1

>  <HBD>
1

>  <RO5>
1

>  <RTB>
5

>  <RO3>
N

>  <ACD_MOST_APKA>


>  <ACD_MOST_BPKA>


>  <ACD_LOGP>
10.07

>  <ACD_LOGD>
10.07

>  <AROMATIC_RINGS>
0

>  <HEAVY_ATOMS>
30

>  <QED_WEIGHTED>
.46

>  <HBA_LIPINSKI>
1

>  <HBD_LIPINSKI>
1

>  <NUM_LIPINSKI_RO5_VIOLATIONS>
1

>  <MW_MONOISOTOPIC>
412.3705

>  <MOLECULAR_SPECIES>
NEUTRAL

>  <FULL_MOLFORMULA>
C29H48O

$$$$

  CDK    9/16/09,10:0

 44 50  0  0  0  0  0  0  0  0999 V2000
    6.2035   -2.6147    0.0000 C   0  0  0  0  0  0  0  0  0  0  0  0
    6.9150   -2.1962    0.0000 C   0  0  0  0  0  0  0  0  0  0  0  0
    7.6294   -2.6147    0.0000 C   0  0  0  0  0  0  0  0  0  0  0  0
    7.6281   -3.4397    0.0000 C   0  0  0  0  0  0  0  0  0  0  0  0
    8.3366   -3.8511    0.0000 C   0  0  0  0  0  0  0  0  0  0  0  0
    9.0540   -3.4453    0.0000 C   0  0  0  0  0  0  0  0  0  0  0  0
    8.3438   -2.2012    0.0000 C   0  0  0  0  0  0  0  0  0  0  0  0
    9.0576   -2.6218    0.0000 C   0  0  0  0  0  0  0  0  0  0  0  0
    9.0712   -0.9610    0.0000 C   0  0  0  0  0  0  0  0  0  0  0  0
    8.3453   -1.3722    0.0000 C   0  0  0  0  0  0  0  0  0  0  0  0
    9.7897   -1.3862    0.0000 C   0  0  0  0  0  0  0  0  0  0  0  0
   11.0578   -1.8208    0.0000 C   0  0  0  0  0  0  0  0  0  0  0  0
   10.5803   -1.1421    0.0000 C   0  0  0  0  0  0  0  0  0  0  0  0
    5.4921   -3.8507    0.0000 O   0  0  0  0  0  0  0  0  0  0  0  0
    4.7806   -3.4397    0.0000 C   0  0  0  0  0  0  0  0  0  0  0  0
    4.0646   -3.8507    0.0000 C   0  0  0  0  0  0  0  0  0  0  0  0
    4.7806   -2.6178    0.0000 O   0  0  0  0  0  0  0  0  0  0  0  0
    6.9150   -3.8507    0.0000 C   0  0  0  0  0  0  0  0  0  0  0  0
    6.2035   -3.4397    0.0000 C   0  0  0  0  0  0  0  0  0  0  0  0
    6.5186   -4.3985    0.0000 C   0  0  0  0  0  0  0  0  0  0  0  0
    7.1213   -4.6421    0.0000 C   0  0  0  0  0  0  0  0  0  0  0  0
    6.8534   -2.6832    0.0000 C   0  0  0  0  0  0  0  0  0  0  0  0
    6.7164   -3.1626    0.0000 O   0  0  0  0  0  0  0  0  0  0  0  0
    7.6205   -4.2585    0.0000 H   0  0  0  0  0  0  0  0  0  0  0  0
    8.3405   -3.0181    0.0000 H   0  0  0  0  0  0  0  0  0  0  0  0
    7.6392   -0.9565    0.0000 O   0  0  0  0  0  0  0  0  0  0  0  0
    9.0806   -0.1392    0.0000 O   0  0  0  0  0  0  0  0  0  0  0  0
    8.3717    0.2747    0.0000 C   0  0  0  0  0  0  0  0  0  0  0  0
    8.3812    1.0965    0.0000 O   0  0  0  0  0  0  0  0  0  0  0  0
    7.6579   -0.1241    0.0000 C   0  0  0  0  0  0  0  0  0  0  0  0
    9.7818   -0.5630    0.0000 C   0  0  0  0  0  0  0  0  0  0  0  0
   10.8478   -0.3697    0.0000 C   0  0  0  0  0  0  0  0  0  0  0  0
   11.6324   -0.1241    0.0000 C   0  0  0  0  0  0  0  0  0  0  0  0
   11.6469    0.6976    0.0000 O   0  0  0  0  0  0  0  0  0  0  0  0
   10.8674    0.9607    0.0000 C   0  0  0  0  0  0  0  0  0  0  0  0
   10.3722    0.3047    0.0000 C   0  0  0  0  0  0  0  0  0  0  0  0
   10.5602   -2.4810    0.0000 C   0  0  0  0  0  0  0  0  0  0  0  0
    9.7773   -2.2153    0.0000 C   0  0  0  0  0  0  0  0  0  0  0  0
    9.9351   -3.0273    0.0000 O   0  0  0  0  0  0  0  0  0  0  0  0
    9.0579   -1.7067    0.0000 C   0  0  0  0  0  0  0  0  0  0  0  0
   11.1407   -3.0660    0.0000 H   0  0  0  0  0  0  0  0  0  0  0  0
    6.9130   -1.3743    0.0000 O   0  0  0  0  0  0  0  0  0  0  0  0
    6.2228   -5.1673    0.0000 O   0  0  0  0  0  0  0  0  0  0  0  0
    9.7655   -3.8593    0.0000 O   0  0  0  0  0  0  0  0  0  0  0  0
 18  4  1  0  0  0  0 
  3  2  1  0  0  0  0 
  3  4  1  0  0  0  0 
  3  7  1  0  0  0  0 
  4  5  1  0  0  0  0 
  5  6  1  0  0  0  0 
  6  8  1  0  0  0  0 
  7  8  1  0  0  0  0 
  7 10  1  0  0  0  0 
  8 38  1  0  0  0  0 
 11  9  1  0  0  0  0 
  9 10  1  0  0  0  0 
 11 38  1  0  0  0  0 
 37 12  1  0  0  0  0 
 12 13  1  0  0  0  0 
 13 11  1  0  0  0  0 
 19 14  1  6  0  0  0 
 14 15  1  0  0  0  0 
 15 16  1  0  0  0  0 
 15 17  2  0  0  0  0 
 19 18  1  0  0  0  0 
 18 20  1  0  0  0  0 
 18 21  1  6  0  0  0 
  3 22  1  1  0  0  0 
 22 23  1  0  0  0  0 
 20 23  1  0  0  0  0 
  4 24  1  6  0  0  0 
  7 25  1  6  0  0  0 
 10 26  2  0  0  0  0 
  9 27  1  6  0  0  0 
 27 28  1  0  0  0  0 
 28 29  2  0  0  0  0 
 28 30  1  0  0  0  0 
 11 31  1  6  0  0  0 
 32 33  2  0  0  0  0 
 33 34  1  0  0  0  0 
 34 35  1  0  0  0  0 
 35 36  2  0  0  0  0 
 36 32  1  0  0  0  0 
 13 32  1  6  0  0  0 
 38 37  1  0  0  0  0 
 38 39  1  1  0  0  0 
 37 39  1  0  0  0  0 
  8 40  1  1  0  0  0 
 37 41  1  6  0  0  0 
  1 19  1  0  0  0  0 
  1  2  1  0  0  0  0 
 20 43  1  6  0  0  0 
  2 42  1  6  0  0  0 
  6 44  1  6  0  0  0 
M  END
>  <MOLREGNO>
474715

>  <CHEMBLID>
CHEMBL503044

>  <SYNONYMS>
Toosendanin

>  <MAX_PHASE>
0

>  <MOLWEIGHT>
574.62

>  <ALOGP>
-.56

>  <PSA>
165.26

>  <HBA>
10

>  <HBD>
3

>  <RO5>
1

>  <RTB>
5

>  <RO3>
N

>  <ACD_MOST_APKA>
12.15

>  <ACD_MOST_BPKA>


>  <ACD_LOGP>
.61

>  <ACD_LOGD>
.61

>  <AROMATIC_RINGS>
1

>  <HEAVY_ATOMS>
41

>  <QED_WEIGHTED>
.39

>  <HBA_LIPINSKI>
11

>  <HBD_LIPINSKI>
3

>  <NUM_LIPINSKI_RO5_VIOLATIONS>
1

>  <MW_MONOISOTOPIC>
574.2414

>  <MOLECULAR_SPECIES>
NEUTRAL

>  <FULL_MOLFORMULA>
C30H38O11

$$$$

  SciTegic12231509382D

 25 26  0  0  1  0            999 V2000
   -0.7781   -0.5059    0.0000 O   0  0
   -2.7373    1.7761    0.0000 O   0  0
   -2.2070   -1.3309    0.0000 O   0  0
   -3.6360   -0.5059    0.0000 O   0  0
   -0.8643    1.6328    0.0000 O   0  0
   -1.9589    2.5513    0.0000 O   0  0
   -0.0636    0.7316    0.0000 O   0  0
    4.2232   -0.0934    0.0000 O   0  0
    4.2232   -1.7434    0.0000 O   0  0
   -2.2070    1.1441    0.0000 C   0  0  2  0  0  0
   -1.4926   -0.0934    0.0000 C   0  0  2  0  0  0
   -1.4926    0.7316    0.0000 C   0  0
   -2.2070   -0.5059    0.0000 C   0  0  1  0  0  0
   -2.9215   -0.0934    0.0000 C   0  0  1  0  0  0
   -2.9215    0.7316    0.0000 C   0  0
   -1.6767    1.7761    0.0000 C   0  0
   -0.0636   -0.0934    0.0000 C   0  0
    0.6508   -0.5059    0.0000 C   0  0
    2.0798   -0.5059    0.0000 C   0  0
    1.3653   -0.0934    0.0000 C   0  0
    3.5087   -0.5059    0.0000 C   0  0
    2.7942   -0.0934    0.0000 C   0  0
    3.5087   -1.3309    0.0000 C   0  0
    2.0798   -1.3309    0.0000 C   0  0
    2.7942   -1.7434    0.0000 C   0  0
 11  1  1  1
  1 17  1  0
 10  2  1  6
 13  3  1  6
 14  4  1  6
  5 16  2  0
  6 16  1  0
  7 17  2  0
  8 21  1  0
  9 23  1  0
 10 12  1  0
 10 15  1  0
 10 16  1  1
 11 12  1  0
 11 13  1  0
 13 14  1  0
 14 15  1  0
 17 18  1  0
 18 20  2  0
 19 20  1  0
 19 22  1  0
 19 24  2  0
 21 22  2  0
 21 23  1  0
 23 25  2  0
 24 25  1  0
M  END
>  <MOLREGNO>
46995

>  <CHEMBLID>
CHEMBL284616

>  <SYNONYMS>
NSC-407296

>  <MAX_PHASE>
0

>  <MOLWEIGHT>
354.31

>  <ALOGP>
-.34

>  <PSA>
164.75

>  <HBA>
9

>  <HBD>
6

>  <RO5>
1

>  <RTB>
5

>  <RO3>
N

>  <ACD_MOST_APKA>
13.18

>  <ACD_MOST_BPKA>
6.55

>  <ACD_LOGP>
-.48

>  <ACD_LOGD>
-.56

>  <AROMATIC_RINGS>
1

>  <HEAVY_ATOMS>
25

>  <QED_WEIGHTED>
.24

>  <HBA_LIPINSKI>
9

>  <HBD_LIPINSKI>
6

>  <NUM_LIPINSKI_RO5_VIOLATIONS>
1

>  <MW_MONOISOTOPIC>
354.0951

>  <MOLECULAR_SPECIES>
NEUTRAL

>  <FULL_MOLFORMULA>
C16H18O9

$$$$

  CDK    6/4/10,11:42

 37 39  0  0  0  0  0  0  0  0999 V2000
   -0.5682  -10.1182    0.0000 C   0  0  0  0  0  0  0  0  0  0  0  0
    0.1185   -9.6574    0.0000 O   0  0  0  0  0  0  0  0  0  0  0  0
   -0.5086   -8.7845    0.0000 O   0  0  0  0  0  0  0  0  0  0  0  0
   -1.0223   -9.4299    0.0000 C   0  0  0  0  0  0  0  0  0  0  0  0
   -1.2823  -10.5337    0.0000 C   0  0  0  0  0  0  0  0  0  0  0  0
   -1.2823  -11.3662    0.0000 C   0  0  0  0  0  0  0  0  0  0  0  0
   -0.5682  -11.7787    0.0000 C   0  0  0  0  0  0  0  0  0  0  0  0
    0.1535  -11.3662    0.0000 C   0  0  0  0  0  0  0  0  0  0  0  0
    0.1535  -10.5337    0.0000 C   0  0  0  0  0  0  0  0  0  0  0  0
    0.8666  -11.7804    0.0000 O   0  0  0  0  0  0  0  0  0  0  0  0
   -0.5655  -12.6037    0.0000 O   0  0  0  0  0  0  0  0  0  0  0  0
   -1.9964  -11.7787    0.0000 O   0  0  0  0  0  0  0  0  0  0  0  0
   -1.8463   -9.3928    0.0000 O   0  0  0  0  0  0  0  0  0  0  0  0
   -1.9961  -12.6037    0.0000 C   0  0  0  0  0  0  0  0  0  0  0  0
   -2.7105  -13.0163    0.0000 C   0  0  0  0  0  0  0  0  0  0  0  0
   -1.2816  -13.0160    0.0000 O   0  0  0  0  0  0  0  0  0  0  0  0
   -2.7103  -13.8413    0.0000 C   0  0  0  0  0  0  0  0  0  0  0  0
   -3.4246  -14.2539    0.0000 C   0  0  0  0  0  0  0  0  0  0  0  0
   -4.1407  -13.8435    0.0000 C   0  0  0  0  0  0  0  0  0  0  0  0
   -4.8545  -14.2554    0.0000 C   0  0  0  0  0  0  0  0  0  0  0  0
   -4.8548  -15.0812    0.0000 C   0  0  0  0  0  0  0  0  0  0  0  0
   -4.1353  -15.4934    0.0000 C   0  0  0  0  0  0  0  0  0  0  0  0
   -3.4244  -15.0790    0.0000 C   0  0  0  0  0  0  0  0  0  0  0  0
   -4.1322  -16.3183    0.0000 O   0  0  0  0  0  0  0  0  0  0  0  0
   -5.5681  -15.4948    0.0000 O   0  0  0  0  0  0  0  0  0  0  0  0
    0.8645  -12.6053    0.0000 C   0  0  0  0  0  0  0  0  0  0  0  0
    1.5779  -13.0196    0.0000 C   0  0  0  0  0  0  0  0  0  0  0  0
    0.1490  -13.0160    0.0000 O   0  0  0  0  0  0  0  0  0  0  0  0
    1.5759  -13.8446    0.0000 C   0  0  0  0  0  0  0  0  0  0  0  0
    2.2893  -14.2588    0.0000 C   0  0  0  0  0  0  0  0  0  0  0  0
    2.2822  -15.0839    0.0000 C   0  0  0  0  0  0  0  0  0  0  0  0
    2.9949  -15.4980    0.0000 C   0  0  0  0  0  0  0  0  0  0  0  0
    3.7112  -15.0873    0.0000 C   0  0  0  0  0  0  0  0  0  0  0  0
    3.7107  -14.2580    0.0000 C   0  0  0  0  0  0  0  0  0  0  0  0
    2.9976  -13.8477    0.0000 C   0  0  0  0  0  0  0  0  0  0  0  0
    4.4247  -13.8449    0.0000 O   0  0  0  0  0  0  0  0  0  0  0  0
    4.4252  -15.5006    0.0000 O   0  0  0  0  0  0  0  0  0  0  0  0
  6  7  1  0  0  0  0 
 18 19  2  0  0  0  0 
  7  8  1  0  0  0  0 
 19 20  1  0  0  0  0 
  8  9  1  0  0  0  0 
 20 21  2  0  0  0  0 
  9  1  1  0  0  0  0 
 21 22  1  0  0  0  0 
  8 10  1  1  0  0  0 
 22 23  2  0  0  0  0 
 23 18  1  0  0  0  0 
  7 11  1  6  0  0  0 
 22 24  1  0  0  0  0 
  6 12  1  6  0  0  0 
 21 25  1  0  0  0  0 
 10 26  1  0  0  0  0 
  4 13  2  0  0  0  0 
 26 27  1  0  0  0  0 
  1  2  1  6  0  0  0 
 26 28  2  0  0  0  0 
 12 14  1  0  0  0  0 
 27 29  2  0  0  0  0 
  3  4  1  0  0  0  0 
 29 30  1  0  0  0  0 
 14 15  1  0  0  0  0 
 30 31  2  0  0  0  0 
  4  1  1  0  0  0  0 
 31 32  1  0  0  0  0 
 14 16  2  0  0  0  0 
 32 33  2  0  0  0  0 
  5  6  1  0  0  0  0 
 33 34  1  0  0  0  0 
 15 17  2  0  0  0  0 
 34 35  2  0  0  0  0 
 35 30  1  0  0  0  0 
  5  1  1  0  0  0  0 
 34 36  1  0  0  0  0 
 17 18  1  0  0  0  0 
 33 37  1  0  0  0  0 
M  END
>  <MOLREGNO>
421394

>  <CHEMBLID>
CHEMBL249447

>  <SYNONYMS>
Rel-3,5-Dicaffeoylquinic Acid | 3,5-Dicaffeoyl Quinic Acid | 3,5-Dicaffeoylquinic Acid | 3,5-Dicaffeoylquinicacid

>  <MAX_PHASE>
0

>  <MOLWEIGHT>
516.45

>  <ALOGP>
1.69

>  <PSA>
211.27

>  <HBA>
12

>  <HBD>
7

>  <RO5>
3

>  <RTB>
9

>  <RO3>
N

>  <ACD_MOST_APKA>
3.52

>  <ACD_MOST_BPKA>


>  <ACD_LOGP>
2.65

>  <ACD_LOGD>
-1.03

>  <AROMATIC_RINGS>
2

>  <HEAVY_ATOMS>
37

>  <QED_WEIGHTED>
.14

>  <HBA_LIPINSKI>
12

>  <HBD_LIPINSKI>
7

>  <NUM_LIPINSKI_RO5_VIOLATIONS>
2

>  <MW_MONOISOTOPIC>
516.1268

>  <MOLECULAR_SPECIES>
ACID

>  <FULL_MOLFORMULA>
C25H24O12

$$$$

  CDK    9/16/09,9:55

 37 39  0  0  0  0  0  0  0  0999 V2000
   -0.2312    2.0771    0.0000 C   0  0  0  0  0  0  0  0  0  0  0  0
    0.9963    1.3647    0.0000 C   0  0  0  0  0  0  0  0  0  0  0  0
    0.1753    1.3650    0.0000 C   0  0  0  0  0  0  0  0  0  0  0  0
    0.1753    2.7869    0.0000 C   0  0  0  0  0  0  0  0  0  0  0  0
    1.4095    2.0779    0.0000 C   0  0  0  0  0  0  0  0  0  0  0  0
   -0.8660    2.6095    0.0000 C   0  0  0  0  0  0  0  0  0  0  0  0
    0.9956    2.7876    0.0000 C   0  0  0  0  0  0  0  0  0  0  0  0
   -0.8688    1.5470    0.0000 O   0  0  0  0  0  0  0  0  0  0  0  0
    1.4080    0.6502    0.0000 O   0  0  0  0  0  0  0  0  0  0  0  0
   -0.8685    0.7212    0.0000 C   0  0  0  0  0  0  0  0  0  0  0  0
    0.9961   -0.0689    0.0000 C   0  0  0  0  0  0  0  0  0  0  0  0
   -1.5839    0.3093    0.0000 C   0  0  0  0  0  0  0  0  0  0  0  0
    1.4076   -0.7831    0.0000 C   0  0  0  0  0  0  0  0  0  0  0  0
   -3.7346   -0.9216    0.0000 C   0  0  0  0  0  0  0  0  0  0  0  0
    2.6567   -2.9200    0.0000 C   0  0  0  0  0  0  0  0  0  0  0  0
   -1.5876   -0.5157    0.0000 C   0  0  0  0  0  0  0  0  0  0  0  0
    0.9959   -1.4977    0.0000 C   0  0  0  0  0  0  0  0  0  0  0  0
   -3.7358   -1.7551    0.0000 C   0  0  0  0  0  0  0  0  0  0  0  0
    2.2448   -3.6468    0.0000 C   0  0  0  0  0  0  0  0  0  0  0  0
    2.2415   -2.2093    0.0000 C   0  0  0  0  0  0  0  0  0  0  0  0
   -3.0208   -0.5098    0.0000 C   0  0  0  0  0  0  0  0  0  0  0  0
   -0.7233    3.4220    0.0000 O   0  0  0  0  0  0  0  0  0  0  0  0
    0.1683   -0.0689    0.0000 O   0  0  0  0  0  0  0  0  0  0  0  0
   -0.1531    0.3073    0.0000 O   0  0  0  0  0  0  0  0  0  0  0  0
    1.4076   -2.2121    0.0000 C   0  0  0  0  0  0  0  0  0  0  0  0
   -2.3030   -0.9276    0.0000 C   0  0  0  0  0  0  0  0  0  0  0  0
    1.4136   -3.6464    0.0000 C   0  0  0  0  0  0  0  0  0  0  0  0
   -3.0135   -2.1661    0.0000 C   0  0  0  0  0  0  0  0  0  0  0  0
    2.2371    2.0779    0.0000 O   0  0  0  0  0  0  0  0  0  0  0  0
   -1.6395    2.3292    0.0000 O   0  0  0  0  0  0  0  0  0  0  0  0
    1.4073    3.5022    0.0000 O   0  0  0  0  0  0  0  0  0  0  0  0
   -4.4505   -0.5085    0.0000 O   0  0  0  0  0  0  0  0  0  0  0  0
    3.4842   -2.9200    0.0000 O   0  0  0  0  0  0  0  0  0  0  0  0
   -2.3034   -1.7384    0.0000 C   0  0  0  0  0  0  0  0  0  0  0  0
    1.0005   -2.9213    0.0000 C   0  0  0  0  0  0  0  0  0  0  0  0
   -4.4515   -2.1670    0.0000 O   0  0  0  0  0  0  0  0  0  0  0  0
    2.6565   -4.3613    0.0000 O   0  0  0  0  0  0  0  0  0  0  0  0
  2  3  1  0  0  0  0 
  3  1  1  0  0  0  0 
  4  1  1  0  0  0  0 
  5  7  1  0  0  0  0 
  1  6  1  1  0  0  0 
  7  4  1  0  0  0  0 
  1  8  1  0  0  0  0 
  2  9  1  6  0  0  0 
 10  8  1  0  0  0  0 
 11  9  1  0  0  0  0 
 12 10  1  0  0  0  0 
 13 11  1  0  0  0  0 
 14 21  1  0  0  0  0 
 15 20  1  0  0  0  0 
 16 12  2  0  0  0  0 
 17 13  2  0  0  0  0 
 18 28  1  0  0  0  0 
 19 27  1  0  0  0  0 
 20 25  2  0  0  0  0 
 21 26  2  0  0  0  0 
 22  6  2  0  0  0  0 
 23 11  2  0  0  0  0 
 24 10  2  0  0  0  0 
 25 17  1  0  0  0  0 
 26 16  1  0  0  0  0 
 27 35  2  0  0  0  0 
 28 34  2  0  0  0  0 
  5 29  1  6  0  0  0 
 30  6  1  0  0  0  0 
  7 31  1  1  0  0  0 
 32 14  1  0  0  0  0 
 33 15  1  0  0  0  0 
 34 26  1  0  0  0  0 
 35 25  1  0  0  0  0 
 36 18  1  0  0  0  0 
 37 19  1  0  0  0  0 
  2  5  1  0  0  0  0 
 14 18  2  0  0  0  0 
 15 19  2  0  0  0  0 
M  END
>  <MOLREGNO>
453917

>  <CHEMBLID>
CHEMBL487258

>  <SYNONYMS>
NSC-91529 | Cynaricine

>  <MAX_PHASE>
0

>  <MOLWEIGHT>
516.45

>  <ALOGP>
1.69

>  <PSA>
211.27

>  <HBA>
12

>  <HBD>
7

>  <RO5>
3

>  <RTB>
9

>  <RO3>
N

>  <ACD_MOST_APKA>
2.53

>  <ACD_MOST_BPKA>


>  <ACD_LOGP>
1.74

>  <ACD_LOGD>
-1.99

>  <AROMATIC_RINGS>
2

>  <HEAVY_ATOMS>
37

>  <QED_WEIGHTED>
.14

>  <HBA_LIPINSKI>
12

>  <HBD_LIPINSKI>
7

>  <NUM_LIPINSKI_RO5_VIOLATIONS>
2

>  <MW_MONOISOTOPIC>
516.1268

>  <MOLECULAR_SPECIES>
ACID

>  <FULL_MOLFORMULA>
C25H24O12

$$$$

  SciTegic01161211252D

 22 25  0  0  0  0            999 V2000
    4.0596  -16.2109    0.0000 C   0  0
    4.8022  -16.5797    0.0000 C   0  0
    4.9798  -17.3847    0.0000 C   0  0
    3.1219  -17.3608    0.0000 C   0  0
    3.3148  -16.5605    0.0000 C   0  0
    2.7188  -15.9913    0.0000 C   0  0
    1.9255  -16.2252    0.0000 C   0  0
    1.7317  -17.0337    0.0000 C   0  0
    2.3334  -17.5995    0.0000 C   0  0
    5.7832  -17.5754    0.0000 C   0  0
    6.3521  -16.9744    0.0000 O   0  0
    4.4597  -18.0193    0.0000 C   0  0
    3.6343  -18.0131    0.0000 C   0  0
    3.2160  -18.7242    0.0000 C   0  0
    4.8650  -18.7326    0.0000 C   0  0
    4.4546  -19.4443    0.0000 C   0  0
    3.6297  -19.4428    0.0000 C   0  0
    3.3703  -20.2270    0.0000 O   0  0
    4.0376  -20.7149    0.0000 C   0  0
    4.7067  -20.2296    0.0000 O   0  0
    1.3242  -15.6568    0.0000 O   0  0
    1.5142  -14.8533    0.0000 C   0  0
  3 10  1  0
  1  2  1  0
 10 11  1  0
  4  5  2  0
  5  1  1  0
 12 13  2  0
  5  6  1  0
 13 14  1  0
 14 17  2  0
  2  3  2  0
 16 15  2  0
 15 12  1  0
 16 17  1  0
  6  7  2  0
  4 13  1  0
  7  8  1  0
  3 12  1  0
  8  9  2  0
 17 18  1  0
 18 19  1  0
 19 20  1  0
 20 16  1  0
  9  4  1  0
  7 21  1  0
 21 22  1  0
M  END
>  <MOLREGNO>
617550

>  <CHEMBLID>
CHEMBL1077894

>  <SYNONYMS>
tenuifolin

>  <MAX_PHASE>
0

>  <MOLWEIGHT>
296.32

>  <ALOGP>
3.07

>  <PSA>
47.92

>  <HBA>
4

>  <HBD>
1

>  <RO5>
0

>  <RTB>
2

>  <RO3>
N

>  <ACD_MOST_APKA>


>  <ACD_MOST_BPKA>


>  <ACD_LOGP>
4.5

>  <ACD_LOGD>
4.5

>  <AROMATIC_RINGS>
2

>  <HEAVY_ATOMS>
22

>  <QED_WEIGHTED>
.93

>  <HBA_LIPINSKI>
4

>  <HBD_LIPINSKI>
1

>  <NUM_LIPINSKI_RO5_VIOLATIONS>
0

>  <MW_MONOISOTOPIC>
296.1049

>  <MOLECULAR_SPECIES>
NEUTRAL

>  <FULL_MOLFORMULA>
C18H16O4

$$$$

  SciTegic04181615532D

 38 40  0  0  0  0            999 V2000
    6.6943  -10.1434    0.0000 O   0  0
    3.8912   -5.2578    0.0000 O   0  0
    3.8933   -3.7570    0.0000 C   0  0
    2.5951   -3.0039    0.0000 C   0  0
    4.9336   -3.1588    0.0000 O   0  0
    2.5973   -1.5031    0.0000 C   0  0
    1.2990   -0.7500    0.0000 C   0  0
    1.2990    0.7500    0.0000 C   0  0
    0.0000    1.5000    0.0000 C   0  0
   -1.2990    0.7500    0.0000 C   0  0
   -1.2990   -0.7500    0.0000 C   0  0
    0.0000   -1.5000    0.0000 C   0  0
   -2.5972   -1.5031    0.0000 O   0  0
   -2.5955   -2.7031    0.0000 C   0  0
    0.0031    3.0008    0.0000 O   0  0
    1.0432    3.5994    0.0000 C   0  0
   -2.3383    1.3500    0.0000 O   0  0
    4.4307   -8.2894    0.0000 O   0  0
    4.8078   -0.4898    0.0000 C   0  0  2  0  0  0
    6.2225    0.0088    0.0000 C   0  0  2  0  0  0
    7.3616   -0.9671    0.0000 C   0  0  1  0  0  0
    7.0861   -2.4415    0.0000 C   0  0  2  0  0  0
    5.6709   -2.9396    0.0000 C   0  0  2  0  0  0
    4.5322   -1.9642    0.0000 O   0  0
    5.4140   -4.4182    0.0000 O   0  0
    7.9972   -3.2224    0.0000 O   0  0
    8.4934   -0.5682    0.0000 O   0  0
    6.4430    1.1884    0.0000 O   0  0
    3.6700    0.4890    0.0000 C   0  0
    3.8921    1.6683    0.0000 O   0  0
    6.5408   -5.3899    0.0000 C   0  0  1  0  0  0
    5.1894   -6.0109    0.0000 C   0  0  2  0  0  0
    5.3273   -7.4917    0.0000 C   0  0  1  0  0  0
    6.7945   -7.8036    0.0000 C   0  0  2  0  0  0
    7.5445   -6.5046    0.0000 O   0  0
    7.9605   -4.9433    0.0000 C   0  0
    8.2039   -3.7683    0.0000 O   0  0
    7.4010   -9.1736    0.0000 C   0  0
  2  3  1  0
  3  4  1  0
  3  5  2  0
  4  6  2  0
  6  7  1  0
  7  8  2  0
  8  9  1  0
  9 10  2  0
 10 11  1  0
 11 12  2  0
 12  7  1  0
 13 14  1  0
 11 13  1  0
 15 16  1  0
  9 15  1  0
 10 17  1  0
 19 20  1  0
 19 24  1  0
 20 21  1  0
 21 22  1  0
 22 23  1  0
 23 24  1  0
 23 25  1  1
 22 26  1  1
 21 27  1  6
 20 28  1  1
 19 29  1  6
 29 30  1  0
 25 31  1  0
 31 32  1  0
 32 33  1  0
 33 34  1  0
 34 35  1  0
 35 31  1  0
 31 36  1  1
 36 37  1  0
 32  2  1  6
 33 18  1  1
 34 38  1  6
 38  1  1  0
M  END
>  <MOLREGNO>
1947290

>  <CHEMBLID>
CHEMBL3581236

>  <SYNONYMS>


>  <MAX_PHASE>
0

>  <MOLWEIGHT>
548.49

>  <ALOGP>
-2.08

>  <PSA>
234.28

>  <HBA>
15

>  <HBD>
8

>  <RO5>
3

>  <RTB>
11

>  <RO3>
N

>  <ACD_MOST_APKA>
9.75

>  <ACD_MOST_BPKA>


>  <ACD_LOGP>
-1.36

>  <ACD_LOGD>
-1.36

>  <AROMATIC_RINGS>
1

>  <HEAVY_ATOMS>
38

>  <QED_WEIGHTED>
.11

>  <HBA_LIPINSKI>
15

>  <HBD_LIPINSKI>
8

>  <NUM_LIPINSKI_RO5_VIOLATIONS>
2

>  <MW_MONOISOTOPIC>
548.1741

>  <MOLECULAR_SPECIES>
NEUTRAL

>  <FULL_MOLFORMULA>
C23H32O15

$$$$

  SciTegic04181615532D

 54 57  0  0  0  0            999 V2000
    3.8912   -5.2578    0.0000 O   0  0
    3.8933   -3.7570    0.0000 C   0  0
    2.5951   -3.0039    0.0000 C   0  0
    4.9336   -3.1588    0.0000 O   0  0
    2.5973   -1.5031    0.0000 C   0  0
    1.2990   -0.7500    0.0000 C   0  0
    1.2990    0.7500    0.0000 C   0  0
    0.0000    1.5000    0.0000 C   0  0
   -1.2990    0.7500    0.0000 C   0  0
   -1.2990   -0.7500    0.0000 C   0  0
    0.0000   -1.5000    0.0000 C   0  0
   -2.5972   -1.5031    0.0000 O   0  0
   -3.6381   -0.9059    0.0000 C   0  0
    0.0031    3.0008    0.0000 O   0  0
    1.0432    3.5994    0.0000 C   0  0
   -2.6003    1.4977    0.0000 O   0  0
   -3.6387    0.8962    0.0000 C   0  0
    4.4307   -8.2894    0.0000 O   0  0
    6.6943  -10.1434    0.0000 O   0  0
    4.8078   -0.4898    0.0000 C   0  0  2  0  0  0
    6.2225    0.0088    0.0000 C   0  0  2  0  0  0
    7.3616   -0.9671    0.0000 C   0  0  1  0  0  0
    7.0861   -2.4415    0.0000 C   0  0  2  0  0  0
    5.6709   -2.9396    0.0000 C   0  0  2  0  0  0
    4.5322   -1.9642    0.0000 O   0  0
    5.4140   -4.4182    0.0000 O   0  0
    7.9972   -3.2224    0.0000 O   0  0
    8.4934   -0.5682    0.0000 O   0  0
    6.4430    1.1884    0.0000 O   0  0
    3.6700    0.4890    0.0000 C   0  0
    3.9478    1.9639    0.0000 O   0  0
    6.5408   -5.3899    0.0000 C   0  0  1  0  0  0
    5.1894   -6.0109    0.0000 C   0  0  2  0  0  0
    5.3273   -7.4917    0.0000 C   0  0  1  0  0  0
    6.7945   -7.8036    0.0000 C   0  0  2  0  0  0
    7.5445   -6.5046    0.0000 O   0  0
    7.9605   -4.9433    0.0000 C   0  0
    8.2039   -3.7683    0.0000 O   0  0
    7.4010   -9.1736    0.0000 C   0  0
    2.8101    2.9426    0.0000 C   0  0
    3.0879    4.4175    0.0000 C   0  0
    1.6776    2.5457    0.0000 O   0  0
    1.9501    5.3963    0.0000 C   0  0
    2.2279    6.8712    0.0000 C   0  0
    1.0922    7.8511    0.0000 C   0  0
    1.3729    9.3246    0.0000 C   0  0
    2.7893    9.8183    0.0000 C   0  0
    3.9251    8.8385    0.0000 C   0  0
    3.6444    7.3650    0.0000 C   0  0
    5.3433    9.3295    0.0000 O   0  0
    6.2508    8.5444    0.0000 C   0  0
    0.2345   10.3026    0.0000 O   0  0
   -0.8981    9.9060    0.0000 C   0  0
    3.0138   10.9971    0.0000 O   0  0
  1  2  1  0
  2  3  1  0
  2  4  2  0
  3  5  2  0
  5  6  1  0
  6  7  2  0
  7  8  1  0
  8  9  2  0
  9 10  1  0
 10 11  2  0
 11  6  1  0
 12 13  1  0
 10 12  1  0
 14 15  1  0
  8 14  1  0
  9 16  1  0
 16 17  1  0
 20 21  1  0
 20 25  1  0
 21 22  1  0
 22 23  1  0
 23 24  1  0
 24 25  1  0
 24 26  1  1
 23 27  1  1
 22 28  1  6
 21 29  1  1
 20 30  1  6
 30 31  1  0
 26 32  1  0
 32 33  1  0
 33 34  1  0
 34 35  1  0
 35 36  1  0
 36 32  1  0
 32 37  1  1
 37 38  1  0
 33  1  1  6
 34 18  1  1
 35 39  1  6
 39 19  1  0
 31 40  1  0
 40 41  1  0
 40 42  2  0
 41 43  2  0
 43 44  1  0
 44 45  2  0
 45 46  1  0
 46 47  2  0
 47 48  1  0
 48 49  2  0
 49 44  1  0
 50 51  1  0
 48 50  1  0
 52 53  1  0
 46 52  1  0
 47 54  1  0
M  END
>  <MOLREGNO>
1947288

>  <CHEMBLID>
CHEMBL3581234

>  <SYNONYMS>


>  <MAX_PHASE>
0

>  <MOLWEIGHT>
768.71

>  <ALOGP>
.39

>  <PSA>
268.04

>  <HBA>
19

>  <HBD>
7

>  <RO5>
3

>  <RTB>
18

>  <RO3>
N

>  <ACD_MOST_APKA>
9.75

>  <ACD_MOST_BPKA>


>  <ACD_LOGP>
2.06

>  <ACD_LOGD>
2.06

>  <AROMATIC_RINGS>
2

>  <HEAVY_ATOMS>
54

>  <QED_WEIGHTED>
.08

>  <HBA_LIPINSKI>
19

>  <HBD_LIPINSKI>
7

>  <NUM_LIPINSKI_RO5_VIOLATIONS>
2

>  <MW_MONOISOTOPIC>
768.2477

>  <MOLECULAR_SPECIES>
NEUTRAL

>  <FULL_MOLFORMULA>
C35H44O19

$$$$

  CDK    9/16/09,9:20

 30 36  0  0  0  0  0  0  0  0999 V2000
   -2.5380  -19.4440    0.0000 C   0  0  0  0  0  0  0  0  0  0  0  0
   -1.8237  -19.0239    0.0000 C   0  0  0  0  0  0  0  0  0  0  0  0
   -1.1094  -19.4440    0.0000 C   0  0  0  0  0  0  0  0  0  0  0  0
   -1.1147  -20.2672    0.0000 C   0  0  0  0  0  0  0  0  0  0  0  0
   -0.4012  -20.6821    0.0000 C   0  0  0  0  0  0  0  0  0  0  0  0
   -0.3948  -19.0314    0.0000 C   0  0  0  0  0  0  0  0  0  0  0  0
    1.0298  -19.0467    0.0000 C   0  0  0  0  0  0  0  0  0  0  0  0
   -0.3909  -18.2080    0.0000 C   0  0  0  0  0  0  0  0  0  0  0  0
   -1.8237  -20.6788    0.0000 C   0  0  0  0  0  0  0  0  0  0  0  0
   -2.5371  -20.2733    0.0000 C   0  0  0  0  0  0  0  0  0  0  0  0
   -3.1437  -20.8273    0.0000 C   0  0  0  0  0  0  0  0  0  0  0  0
   -2.8065  -21.5780    0.0000 O   0  0  0  0  0  0  0  0  0  0  0  0
   -1.9892  -21.4830    0.0000 C   0  0  0  0  0  0  0  0  0  0  0  0
    0.3328  -17.8037    0.0000 C   0  0  0  0  0  0  0  0  0  0  0  0
    1.0444  -18.2190    0.0000 C   0  0  0  0  0  0  0  0  0  0  0  0
    1.0485  -17.3943    0.0000 O   0  0  0  0  0  0  0  0  0  0  0  0
    1.8688  -18.2134    0.0000 C   0  0  0  0  0  0  0  0  0  0  0  0
    2.2832  -18.9286    0.0000 C   0  0  0  0  0  0  0  0  0  0  0  0
    2.2777  -17.4969    0.0000 C   0  0  0  0  0  0  0  0  0  0  0  0
   -1.9122  -19.6541    0.0000 C   0  0  0  0  0  0  0  0  0  0  0  0
   -1.1164  -18.6165    0.0000 O   0  0  0  0  0  0  0  0  0  0  0  0
   -3.9542  -20.6646    0.0000 O   0  0  0  0  0  0  0  0  0  0  0  0
   -1.1227  -21.0925    0.0000 H   0  0  0  0  0  0  0  0  0  0  0  0
    0.3155  -19.4528    0.0000 C   0  0  0  0  0  0  0  0  0  0  0  0
    0.3192  -20.2759    0.0000 C   0  0  0  0  0  0  0  0  0  0  0  0
    1.0317  -19.8612    0.0000 O   0  0  0  0  0  0  0  0  0  0  0  0
    1.8264  -19.2614    0.0000 O   0  0  0  0  0  0  0  0  0  0  0  0
   -0.9209  -17.5770    0.0000 H   0  0  0  0  0  0  0  0  0  0  0  0
   -0.1115  -17.1065    0.0000 H   0  0  0  0  0  0  0  0  0  0  0  0
    0.9804  -20.7677    0.0000 H   0  0  0  0  0  0  0  0  0  0  0  0
  1 10  1  0  0  0  0 
  1  2  1  0  0  0  0 
  9  4  1  0  0  0  0 
  3  2  1  0  0  0  0 
  3  4  1  0  0  0  0 
  3  6  1  0  0  0  0 
  4  5  1  0  0  0  0 
  5 25  1  0  0  0  0 
  6 24  1  0  0  0  0 
  6  8  1  0  0  0  0 
 24  7  1  0  0  0  0 
  7 15  1  0  0  0  0 
 14  8  1  0  0  0  0 
  9 10  2  0  0  0  0 
 10 11  1  0  0  0  0 
 11 12  1  0  0  0  0 
 12 13  1  0  0  0  0 
 13  9  1  0  0  0  0 
 15 14  1  0  0  0  0 
 15 16  1  0  0  0  0 
 14 16  1  0  0  0  0 
 15 17  1  1  0  0  0 
 17 18  1  0  0  0  0 
 17 19  1  0  0  0  0 
  3 20  1  1  0  0  0 
  6 21  1  1  0  0  0 
  8 21  1  0  0  0  0 
 11 22  2  0  0  0  0 
  4 23  1  6  0  0  0 
 25 24  1  0  0  0  0 
 25 26  1  0  0  0  0 
 24 26  1  1  0  0  0 
  7 27  1  1  0  0  0 
  8 28  1  6  0  0  0 
 14 29  1  1  0  0  0 
 25 30  1  6  0  0  0 
M  END
>  <MOLREGNO>
345080

>  <CHEMBLID>
CHEMBL463763

>  <SYNONYMS>
Triptolide

>  <MAX_PHASE>
0

>  <MOLWEIGHT>
360.4

>  <ALOGP>
.87

>  <PSA>
84.12

>  <HBA>
6

>  <HBD>
1

>  <RO5>
0

>  <RTB>
1

>  <RO3>
N

>  <ACD_MOST_APKA>


>  <ACD_MOST_BPKA>


>  <ACD_LOGP>
.6

>  <ACD_LOGD>
.6

>  <AROMATIC_RINGS>
0

>  <HEAVY_ATOMS>
26

>  <QED_WEIGHTED>
.7

>  <HBA_LIPINSKI>
6

>  <HBD_LIPINSKI>
1

>  <NUM_LIPINSKI_RO5_VIOLATIONS>
0

>  <MW_MONOISOTOPIC>
360.1573

>  <MOLECULAR_SPECIES>
NEUTRAL

>  <FULL_MOLFORMULA>
C20H24O6

$$$$

  CDK    9/16/09,9:20

 31 37  0  0  0  0  0  0  0  0999 V2000
    8.6960  -10.7824    0.0000 C   0  0  0  0  0  0  0  0  0  0  0  0
    9.4102  -10.3623    0.0000 C   0  0  0  0  0  0  0  0  0  0  0  0
   10.1244  -10.7824    0.0000 C   0  0  0  0  0  0  0  0  0  0  0  0
   10.1191  -11.6055    0.0000 C   0  0  0  0  0  0  0  0  0  0  0  0
   10.8326  -12.0204    0.0000 C   0  0  0  0  0  0  0  0  0  0  0  0
   10.8390  -10.3698    0.0000 C   0  0  0  0  0  0  0  0  0  0  0  0
   12.2634  -10.3851    0.0000 C   0  0  0  0  0  0  0  0  0  0  0  0
   10.8429   -9.5465    0.0000 C   0  0  0  0  0  0  0  0  0  0  0  0
    9.4102  -12.0171    0.0000 C   0  0  0  0  0  0  0  0  0  0  0  0
    8.6969  -11.6115    0.0000 C   0  0  0  0  0  0  0  0  0  0  0  0
    8.0904  -12.1655    0.0000 C   0  0  0  0  0  0  0  0  0  0  0  0
    8.4276  -12.9162    0.0000 O   0  0  0  0  0  0  0  0  0  0  0  0
    9.2447  -12.8212    0.0000 C   0  0  0  0  0  0  0  0  0  0  0  0
    7.9812  -10.3704    0.0000 O   0  0  0  0  0  0  0  0  0  0  0  0
   11.5665   -9.1422    0.0000 C   0  0  0  0  0  0  0  0  0  0  0  0
   12.2780   -9.5575    0.0000 C   0  0  0  0  0  0  0  0  0  0  0  0
   12.2821   -8.7329    0.0000 O   0  0  0  0  0  0  0  0  0  0  0  0
   13.1023   -9.5519    0.0000 C   0  0  0  0  0  0  0  0  0  0  0  0
   13.5167  -10.2670    0.0000 C   0  0  0  0  0  0  0  0  0  0  0  0
   13.5112   -8.8353    0.0000 C   0  0  0  0  0  0  0  0  0  0  0  0
    9.3218  -10.9924    0.0000 C   0  0  0  0  0  0  0  0  0  0  0  0
   10.1174   -9.9549    0.0000 O   0  0  0  0  0  0  0  0  0  0  0  0
    7.2799  -12.0029    0.0000 O   0  0  0  0  0  0  0  0  0  0  0  0
   10.1111  -12.4307    0.0000 H   0  0  0  0  0  0  0  0  0  0  0  0
   11.5492  -10.7912    0.0000 C   0  0  0  0  0  0  0  0  0  0  0  0
   11.5529  -11.6142    0.0000 C   0  0  0  0  0  0  0  0  0  0  0  0
   12.2653  -11.1995    0.0000 O   0  0  0  0  0  0  0  0  0  0  0  0
   13.0599  -10.5998    0.0000 O   0  0  0  0  0  0  0  0  0  0  0  0
   10.3129   -8.9156    0.0000 H   0  0  0  0  0  0  0  0  0  0  0  0
   11.1223   -8.4452    0.0000 H   0  0  0  0  0  0  0  0  0  0  0  0
   12.2140  -12.1059    0.0000 H   0  0  0  0  0  0  0  0  0  0  0  0
  1 10  1  0  0  0  0 
  1  2  1  0  0  0  0 
  9  4  1  0  0  0  0 
  3  2  1  0  0  0  0 
  3  4  1  0  0  0  0 
  3  6  1  0  0  0  0 
  4  5  1  0  0  0  0 
  5 26  1  0  0  0  0 
  6 25  1  0  0  0  0 
  6  8  1  0  0  0  0 
 25  7  1  0  0  0  0 
  7 16  1  0  0  0  0 
 15  8  1  0  0  0  0 
  9 10  2  0  0  0  0 
 10 11  1  0  0  0  0 
 11 12  1  0  0  0  0 
 12 13  1  0  0  0  0 
 13  9  1  0  0  0  0 
  1 14  1  1  0  0  0 
 16 15  1  0  0  0  0 
 16 17  1  0  0  0  0 
 15 17  1  0  0  0  0 
 16 18  1  1  0  0  0 
 18 19  1  0  0  0  0 
 18 20  1  0  0  0  0 
  3 21  1  1  0  0  0 
  6 22  1  1  0  0  0 
  8 22  1  0  0  0  0 
 11 23  2  0  0  0  0 
  4 24  1  6  0  0  0 
 26 25  1  0  0  0  0 
 26 27  1  0  0  0  0 
 25 27  1  1  0  0  0 
  7 28  1  1  0  0  0 
  8 29  1  6  0  0  0 
 15 30  1  1  0  0  0 
 26 31  1  6  0  0  0 
M  END
>  <MOLREGNO>
444879

>  <CHEMBLID>
CHEMBL486403

>  <SYNONYMS>
Tripdiolide

>  <MAX_PHASE>
0

>  <MOLWEIGHT>
376.4

>  <ALOGP>
-.23

>  <PSA>
104.35

>  <HBA>
7

>  <HBD>
2

>  <RO5>
0

>  <RTB>
1

>  <RO3>
N

>  <ACD_MOST_APKA>
13.5

>  <ACD_MOST_BPKA>


>  <ACD_LOGP>
-.91

>  <ACD_LOGD>
-.91

>  <AROMATIC_RINGS>
0

>  <HEAVY_ATOMS>
27

>  <QED_WEIGHTED>
.61

>  <HBA_LIPINSKI>
7

>  <HBD_LIPINSKI>
2

>  <NUM_LIPINSKI_RO5_VIOLATIONS>
0

>  <MW_MONOISOTOPIC>
376.1522

>  <MOLECULAR_SPECIES>
NEUTRAL

>  <FULL_MOLFORMULA>
C20H24O7

$$$$

  SciTegic01161211222D

 34 38  0  0  0  0            999 V2000
   -0.0458   -4.5417    0.0000 C   0  0
    0.6667   -4.1250    0.0000 C   0  0  1  0  0  0
   -0.0458   -5.3667    0.0000 C   0  0
    1.3792   -4.5417    0.0000 C   0  0
    2.0917   -4.1292    0.0000 C   0  0  2  0  0  0
    2.1042   -3.3042    0.0000 C   0  0  2  0  0  0
   -0.7667   -5.7792    0.0000 C   0  0
   -0.7667   -4.1167    0.0000 C   0  0
   -1.4792   -5.3667    0.0000 C   0  0
    2.8167   -2.9000    0.0000 C   0  0  2  0  0  0
   -1.4792   -4.5417    0.0000 C   0  0
    0.6667   -5.7792    0.0000 C   0  0
    1.3833   -5.3667    0.0000 C   0  0
    3.5458   -1.6792    0.0000 C   0  0  2  0  0  0
    2.8292   -2.0792    0.0000 C   0  0
    3.5208   -3.3250    0.0000 C   0  0  1  0  0  0
    0.6667   -3.3000    0.0000 C   0  0
    4.1333   -1.0917    0.0000 C   0  0
    1.3833   -2.8875    0.0000 C   0  0
    2.7958   -4.5500    0.0000 C   0  0
    3.5083   -4.1500    0.0000 C   0  0
   -2.1958   -4.1292    0.0000 O   0  0
    4.2542   -2.1042    0.0000 C   0  0
    4.2333   -2.9292    0.0000 C   0  0
    3.9167   -0.2917    0.0000 O   0  0
   -2.1917   -5.7792    0.0000 O   0  0
   -0.0542   -3.7042    0.0000 C   0  0
    2.0833   -4.9542    0.0000 C   0  0
    2.0958   -2.4792    0.0000 C   0  0
    4.9333   -1.3042    0.0000 O   0  0
   -0.7667   -6.6042    0.0000 C   0  0
    2.9583   -1.0917    0.0000 C   0  0
    4.2333   -3.7375    0.0000 C   0  0
    2.8083   -3.7292    0.0000 H   0  0
  2  1  1  0
  3  1  1  0
  4  2  1  0
  5  4  1  0
  6 19  1  0
  7  3  1  0
  8  1  2  0
  9 11  1  0
 10  6  1  0
 11  8  1  0
 12  3  2  0
 13 12  1  0
 14 15  1  0
 15 10  1  0
 16 10  1  0
 17  2  1  0
 18 14  1  0
 19 17  1  0
 20  5  1  0
 21 20  1  0
 22 11  2  0
 23 24  1  0
 24 16  1  0
 25 18  2  0
 26  9  1  0
  2 27  1  1
  5 28  1  1
  6 29  1  6
 30 18  1  0
 31  7  1  0
 14 32  1  1
 16 33  1  1
 10 34  1  1
  7  9  2  0
  4 13  2  0
  6  5  1  0
 21 16  1  0
 14 23  1  0
M  END
>  <MOLREGNO>
86102

>  <CHEMBLID>
CHEMBL301982

>  <SYNONYMS>
Celastrol

>  <MAX_PHASE>
0

>  <MOLWEIGHT>
450.61

>  <ALOGP>
5.48

>  <PSA>
74.6

>  <HBA>
4

>  <HBD>
2

>  <RO5>
1

>  <RTB>
1

>  <RO3>
N

>  <ACD_MOST_APKA>
4.78

>  <ACD_MOST_BPKA>


>  <ACD_LOGP>
5.52

>  <ACD_LOGD>
2.88

>  <AROMATIC_RINGS>
0

>  <HEAVY_ATOMS>
33

>  <QED_WEIGHTED>
.56

>  <HBA_LIPINSKI>
4

>  <HBD_LIPINSKI>
2

>  <NUM_LIPINSKI_RO5_VIOLATIONS>
1

>  <MW_MONOISOTOPIC>
450.277

>  <MOLECULAR_SPECIES>
ACID

>  <FULL_MOLFORMULA>
C29H38O4

$$$$

  SciTegic11201309402D

 30 36  0  0  1  0            999 V2000
    6.3167    0.8417    0.0000 C   0  0
    7.0287    1.2583    0.0000 C   0  0
    7.7407    0.8417    0.0000 C   0  0  1  0  0  0
    7.7418    0.0167    0.0000 C   0  0  1  0  0  0
    8.4528   -0.3926    0.0000 C   0  0
    9.1674    0.0185    0.0000 C   0  0  1  0  0  0
    8.4507    1.2574    0.0000 C   0  0  1  0  0  0
    9.1659    0.8389    0.0000 C   0  0  2  0  0  0
    9.8820    1.2468    0.0000 C   0  0
    9.8891    2.0748    0.0000 C   0  0  1  0  0  0
    8.4515    2.0837    0.0000 C   0  0  1  0  0  0
    7.0287   -0.3917    0.0000 C   0  0
    6.3127    0.0190    0.0000 C   0  0
    5.7009   -0.5350    0.0000 C   0  0
    6.0388   -1.2881    0.0000 O   0  0
    6.8593   -1.1994    0.0000 C   0  0
    4.8935   -0.3658    0.0000 O   0  0
    9.8750    0.4292    0.0000 O   0  0
    9.1625    1.6750    0.0000 O   0  0
   10.5935    0.8291    0.0000 O   0  0
   10.6065    2.4821    0.0000 C   0  0
    9.8833    2.9000    0.0000 O   0  0
    9.1667    2.4917    0.0000 C   0  0  2  0  0  0
   11.3180    2.0645    0.0000 C   0  0
   10.6124    3.3071    0.0000 C   0  0
    7.7333    1.6667    0.0000 C   0  0
    9.6620    1.6230    0.0000 H   0  0
    9.4515    2.0821    0.0000 H   0  0
    8.6671    0.8843    0.0000 H   0  0
    7.7407   -0.9833    0.0000 H   0  0
 12 13  2  0
 12  4  1  0
  3  7  1  0
  4  5  1  0
  5  6  1  0
  6  8  1  0
 13 14  1  0
 14 15  1  0
 15 16  1  0
 16 12  1  0
  7  8  1  0
 14 17  2  0
  3  2  1  0
  8 18  1  1
  6 18  1  0
  3  4  1  0
 11 19  1  0
  7 19  1  1
  9 20  2  0
  1 13  1  0
 10 21  1  1
  1  2  1  0
 10 22  1  0
  7 11  1  0
 23 22  1  0
  8  9  1  0
 21 24  1  0
  9 10  1  0
 21 25  1  0
 10 23  1  0
  3 26  1  1
 23 11  1  0
 23 27  1  1
 11 28  1  1
  6 29  1  6
  4 30  1  6
M  END
>  <MOLREGNO>
344591

>  <CHEMBLID>
CHEMBL205190

>  <SYNONYMS>
Triptonide

>  <MAX_PHASE>
0

>  <MOLWEIGHT>
358.39

>  <ALOGP>
1.26

>  <PSA>
80.96

>  <HBA>
6

>  <HBD>
0

>  <RO5>
0

>  <RTB>
1

>  <RO3>
N

>  <ACD_MOST_APKA>


>  <ACD_MOST_BPKA>


>  <ACD_LOGP>
.61

>  <ACD_LOGD>
.61

>  <AROMATIC_RINGS>
0

>  <HEAVY_ATOMS>
26

>  <QED_WEIGHTED>
.66

>  <HBA_LIPINSKI>
6

>  <HBD_LIPINSKI>
0

>  <NUM_LIPINSKI_RO5_VIOLATIONS>
0

>  <MW_MONOISOTOPIC>
358.1416

>  <MOLECULAR_SPECIES>


>  <FULL_MOLFORMULA>
C20H22O6

$$$$

  SciTegic01271415512D

 24 27  0  0  0  0            999 V2000
   -0.4380    0.3285    0.0000 C   0  0  1  0  0  0
    2.0440    0.3467    0.0000 C   0  0
    2.0440    1.7885    0.0000 C   0  0
    0.8030   -0.3650    0.0000 C   0  0  2  0  0  0
   -1.6790   -0.3832    0.0000 C   0  0
   -1.6790   -1.8250    0.0000 C   0  0
   -2.9382   -2.5732    0.0000 C   0  0
    3.3032    2.5367    0.0000 C   0  0
   -4.1792   -1.8432    0.0000 C   0  0
    4.5625    1.8067    0.0000 O   0  0
    4.5625    0.3285    0.0000 C   0  0
   -0.4562    1.7885    0.0000 C   0  0
    0.8030    2.5185    0.0000 C   0  0
   -2.9565    0.3102    0.0000 C   0  0
   -0.4197   -2.5550    0.0000 C   0  0
    0.8212   -1.8067    0.0000 C   0  0
   -4.1792   -0.4015    0.0000 C   0  0
    3.2968    3.7367    0.0000 O   0  0
   -5.4839   -2.5865    0.0000 C   0  0
   -2.9356   -3.7732    0.0000 O   0  0
   -1.4801    0.9235    0.0000 C   0  0
   -6.5200   -1.9812    0.0000 C   0  0
   -5.4904   -3.7865    0.0000 C   0  0
    1.6714   -0.8608    0.0000 H   0  0
  2  4  1  0
  3 13  1  0
  4  1  1  0
  5  1  1  0
  6  5  2  0
  7  6  1  0
  8  3  1  0
  9 17  1  0
 10 11  1  0
 11  2  1  0
 12  1  1  0
 13 12  1  0
 14  5  1  0
 15  6  1  0
  4 16  1  0
 17 14  2  0
 18  8  2  0
 19  9  1  0
 20  7  1  0
  1 21  1  6
 22 19  1  0
 23 19  1  0
 16 15  1  0
  2  3  2  0
  7  9  2  0
  8 10  1  0
  4 24  1  1
M  END
>  <MOLREGNO>
1592038

>  <CHEMBLID>
CHEMBL3039217

>  <SYNONYMS>


>  <MAX_PHASE>
0

>  <MOLWEIGHT>
312.4

>  <ALOGP>
4.63

>  <PSA>
46.53

>  <HBA>
3

>  <HBD>
1

>  <RO5>
0

>  <RTB>
1

>  <RO3>
N

>  <ACD_MOST_APKA>
11.15

>  <ACD_MOST_BPKA>
3.02

>  <ACD_LOGP>
2.23

>  <ACD_LOGD>
2.23

>  <AROMATIC_RINGS>
1

>  <HEAVY_ATOMS>
23

>  <QED_WEIGHTED>
.77

>  <HBA_LIPINSKI>
3

>  <HBD_LIPINSKI>
1

>  <NUM_LIPINSKI_RO5_VIOLATIONS>
0

>  <MW_MONOISOTOPIC>
312.1725

>  <MOLECULAR_SPECIES>
NEUTRAL

>  <FULL_MOLFORMULA>
C20H24O3

$$$$

  SciTegic06061311522D

 48 52  0  0  0  0            999 V2000
    2.0245    0.0882    0.0000 O   0  0
    2.0245    0.9132    0.0000 C   0  0  1  0  0  0
    2.7389    1.3257    0.0000 C   0  0  2  0  0  0
    3.4534    0.9132    0.0000 O   0  0
    2.7389    2.1507    0.0000 C   0  0  2  0  0  0
    3.4534    2.5632    0.0000 O   0  0
    2.0245    2.5632    0.0000 C   0  0  1  0  0  0
    2.0245    3.3882    0.0000 O   0  0
    1.3100    2.1507    0.0000 C   0  0  1  0  0  0
    1.3100    1.3257    0.0000 O   0  0
    0.5955    2.5632    0.0000 C   0  0
   -2.2624   -1.5618    0.0000 O   0  0
   -2.9768   -1.1493    0.0000 C   0  0  1  0  0  0
   -3.6913   -1.5618    0.0000 C   0  0  2  0  0  0
   -3.6913   -2.3868    0.0000 O   0  0
   -4.4058   -1.1493    0.0000 C   0  0  1  0  0  0
   -5.1203   -1.5618    0.0000 O   0  0
   -4.4058   -0.3243    0.0000 C   0  0  2  0  0  0
   -5.1203    0.0882    0.0000 O   0  0
   -3.6913    0.0882    0.0000 C   0  0  2  0  0  0
   -2.9768   -0.3243    0.0000 O   0  0
   -3.6913    0.9132    0.0000 C   0  0
   -2.9768    1.3257    0.0000 O   0  0
   -1.5479   -1.1493    0.0000 C   0  0
   -1.5479   -0.3243    0.0000 C   0  0
   -0.8334    0.0882    0.0000 C   0  0
   -0.8334   -1.5618    0.0000 C   0  0
   -0.1190   -1.1493    0.0000 C   0  0
   -0.1190   -0.3243    0.0000 C   0  0
    0.5955    0.0882    0.0000 C   0  0
    1.3100   -0.3243    0.0000 C   0  0
    1.3100   -1.1493    0.0000 C   0  0
    0.5955   -1.5618    0.0000 O   0  0
   -0.8334    0.9132    0.0000 O   0  0
    0.5955    0.9132    0.0000 O   0  0
    2.0245   -1.5618    0.0000 C   0  0
    2.7389   -1.1493    0.0000 C   0  0
    3.4534   -1.5618    0.0000 C   0  0
    3.4534   -2.3868    0.0000 C   0  0
    2.7389   -2.7993    0.0000 C   0  0
    2.0245   -2.3868    0.0000 C   0  0
    4.1679   -2.7993    0.0000 O   0  0
    4.1679   -3.6243    0.0000 C   0  0
   -0.8334   -2.3868    0.0000 C   0  0
   -0.1190   -2.7993    0.0000 C   0  0
   -0.1190   -3.6243    0.0000 C   0  0
    0.5955   -4.0368    0.0000 C   0  0
   -0.8334   -4.0368    0.0000 C   0  0
  2  1  1  6
 24 25  2  0
  2  3  1  0
 25 26  1  0
 26 29  2  0
  3  4  1  1
 28 27  2  0
 27 24  1  0
 28 29  1  0
  3  5  1  0
  5  6  1  1
  5  7  1  0
  7  8  1  6
  7  9  1  0
  9 10  1  0
 28 33  1  0
 29 30  1  0
 30 31  1  0
 31 32  2  0
 32 33  1  0
  9 11  1  1
 26 34  1  0
  2 10  1  0
 30 35  2  0
 31  1  1  0
 13 12  1  1
 32 36  1  0
 13 14  1  0
 36 37  2  0
 14 15  1  6
 37 38  1  0
 14 16  1  0
 38 39  2  0
 16 17  1  1
 39 40  1  0
 16 18  1  0
 40 41  2  0
 41 36  1  0
 18 19  1  6
 39 42  1  0
 18 20  1  0
 42 43  1  0
 20 21  1  0
 27 44  1  0
 24 12  1  0
 20 22  1  1
 44 45  1  0
 22 23  1  0
 45 46  2  0
 13 21  1  0
 46 47  1  0
 46 48  1  0
M  END
>  <MOLREGNO>
567325

>  <CHEMBLID>
CHEMBL553204

>  <SYNONYMS>
Icariin

>  <MAX_PHASE>
0

>  <MOLWEIGHT>
676.66

>  <ALOGP>
.98

>  <PSA>
234.28

>  <HBA>
15

>  <HBD>
8

>  <RO5>
3

>  <RTB>
9

>  <RO3>
N

>  <ACD_MOST_APKA>
5.9

>  <ACD_MOST_BPKA>


>  <ACD_LOGP>
1.74

>  <ACD_LOGD>
.23

>  <AROMATIC_RINGS>
2

>  <HEAVY_ATOMS>
48

>  <QED_WEIGHTED>
.17

>  <HBA_LIPINSKI>
15

>  <HBD_LIPINSKI>
8

>  <NUM_LIPINSKI_RO5_VIOLATIONS>
2

>  <MW_MONOISOTOPIC>
676.2367

>  <MOLECULAR_SPECIES>
ACID

>  <FULL_MOLFORMULA>
C33H40O15

$$$$

  CDK    9/16/09,9:19

 21 23  0  0  0  0  0  0  0  0999 V2000
    8.4685   -7.2476    0.0000 C   0  0  0  0  0  0  0  0  0  0  0  0
    8.4672   -8.0744    0.0000 C   0  0  0  0  0  0  0  0  0  0  0  0
    9.1795   -8.4868    0.0000 C   0  0  0  0  0  0  0  0  0  0  0  0
    9.1775   -6.8352    0.0000 C   0  0  0  0  0  0  0  0  0  0  0  0
    9.8949   -7.2437    0.0000 C   0  0  0  0  0  0  0  0  0  0  0  0
    9.8985   -8.0717    0.0000 C   0  0  0  0  0  0  0  0  0  0  0  0
   10.6136   -8.4804    0.0000 C   0  0  0  0  0  0  0  0  0  0  0  0
   11.3296   -8.0654    0.0000 C   0  0  0  0  0  0  0  0  0  0  0  0
   11.3259   -7.2373    0.0000 C   0  0  0  0  0  0  0  0  0  0  0  0
   10.6063   -6.8241    0.0000 O   0  0  0  0  0  0  0  0  0  0  0  0
   12.0361   -6.8248    0.0000 C   0  0  0  0  0  0  0  0  0  0  0  0
   12.7515   -7.2361    0.0000 C   0  0  0  0  0  0  0  0  0  0  0  0
   13.4633   -6.8223    0.0000 C   0  0  0  0  0  0  0  0  0  0  0  0
   13.4609   -5.9973    0.0000 C   0  0  0  0  0  0  0  0  0  0  0  0
   12.7407   -5.5878    0.0000 C   0  0  0  0  0  0  0  0  0  0  0  0
   12.0319   -6.0041    0.0000 C   0  0  0  0  0  0  0  0  0  0  0  0
    7.7545   -6.8361    0.0000 O   0  0  0  0  0  0  0  0  0  0  0  0
    9.1788   -9.3109    0.0000 O   0  0  0  0  0  0  0  0  0  0  0  0
   12.0445   -8.4753    0.0000 O   0  0  0  0  0  0  0  0  0  0  0  0
   14.1726   -5.5818    0.0000 O   0  0  0  0  0  0  0  0  0  0  0  0
   14.1782   -7.2322    0.0000 O   0  0  0  0  0  0  0  0  0  0  0  0
  9 10  1  0  0  0  0 
  5  6  1  0  0  0  0 
 11 12  2  0  0  0  0 
  2  3  1  0  0  0  0 
 12 13  1  0  0  0  0 
  3  6  2  0  0  0  0 
 13 14  2  0  0  0  0 
  1  2  2  0  0  0  0 
 14 15  1  0  0  0  0 
  5  4  2  0  0  0  0 
 15 16  2  0  0  0  0 
 16 11  1  0  0  0  0 
  9 11  1  1  0  0  0 
  4  1  1  0  0  0  0 
  1 17  1  0  0  0  0 
  5 10  1  0  0  0  0 
  3 18  1  0  0  0  0 
  6  7  1  0  0  0  0 
  8 19  1  1  0  0  0 
  7  8  1  0  0  0  0 
 14 20  1  0  0  0  0 
  8  9  1  0  0  0  0 
 13 21  1  0  0  0  0 
M  END
>  <MOLREGNO>
210357

>  <CHEMBLID>
CHEMBL129482

>  <SYNONYMS>
Epicatechin | (+)-Epicatechin

>  <MAX_PHASE>
0

>  <MOLWEIGHT>
290.27

>  <ALOGP>
2.02

>  <PSA>
110.38

>  <HBA>
6

>  <HBD>
5

>  <RO5>
0

>  <RTB>
1

>  <RO3>
N

>  <ACD_MOST_APKA>
9.54

>  <ACD_MOST_BPKA>


>  <ACD_LOGP>
.61

>  <ACD_LOGD>
.6

>  <AROMATIC_RINGS>
2

>  <HEAVY_ATOMS>
21

>  <QED_WEIGHTED>
.51

>  <HBA_LIPINSKI>
6

>  <HBD_LIPINSKI>
5

>  <NUM_LIPINSKI_RO5_VIOLATIONS>
0

>  <MW_MONOISOTOPIC>
290.079

>  <MOLECULAR_SPECIES>
NEUTRAL

>  <FULL_MOLFORMULA>
C15H14O6

$$$$

  SciTegic01161211242D

 21 23  0  0  0  0            999 V2000
    4.0376  -24.7470    0.0000 O   0  0
    3.3236  -25.1603    0.0000 C   0  0
    3.3236  -25.9870    0.0000 C   0  0
    4.7515  -25.1603    0.0000 C   0  0  2  0  0  0
    4.0376  -26.4004    0.0000 C   0  0
    2.6096  -26.4004    0.0000 C   0  0
    5.4655  -24.7470    0.0000 C   0  0
    4.7515  -25.9870    0.0000 C   0  0  1  0  0  0
    2.6096  -24.7470    0.0000 C   0  0
    1.8914  -25.9870    0.0000 C   0  0
    5.4655  -23.9203    0.0000 C   0  0
    6.1795  -23.5069    0.0000 C   0  0
    1.8914  -25.1603    0.0000 C   0  0
    6.8935  -23.9203    0.0000 C   0  0
    6.1795  -25.1603    0.0000 C   0  0
    6.8935  -24.7470    0.0000 C   0  0
    2.6096  -27.2230    0.0000 O   0  0
    5.4655  -26.4004    0.0000 O   0  0
    6.1795  -22.6802    0.0000 O   0  0
    1.1732  -24.7470    0.0000 O   0  0
    7.6158  -23.5069    0.0000 O   0  0
  2  1  1  0
  3  2  2  0
  4  1  1  0
  5  8  1  0
  6  3  1  0
  4  7  1  6
  8  4  1  0
  9  2  1  0
 10 13  1  0
 11  7  1  0
 12 11  2  0
 13  9  2  0
 14 16  2  0
 15  7  2  0
 16 15  1  0
 17  6  1  0
  8 18  1  6
 19 12  1  0
 20 13  1  0
 21 14  1  0
  5  3  1  0
  6 10  2  0
 12 14  1  0
M  END
>  <MOLREGNO>
571201

>  <CHEMBLID>
CHEMBL583912

>  <SYNONYMS>
(-)-EPICATECHIN

>  <MAX_PHASE>
0

>  <MOLWEIGHT>
290.27

>  <ALOGP>
2.02

>  <PSA>
110.38

>  <HBA>
6

>  <HBD>
5

>  <RO5>
0

>  <RTB>
1

>  <RO3>
N

>  <ACD_MOST_APKA>
9.54

>  <ACD_MOST_BPKA>


>  <ACD_LOGP>
.61

>  <ACD_LOGD>
.6

>  <AROMATIC_RINGS>
2

>  <HEAVY_ATOMS>
21

>  <QED_WEIGHTED>
.51

>  <HBA_LIPINSKI>
6

>  <HBD_LIPINSKI>
5

>  <NUM_LIPINSKI_RO5_VIOLATIONS>
0

>  <MW_MONOISOTOPIC>
290.079

>  <MOLECULAR_SPECIES>
NEUTRAL

>  <FULL_MOLFORMULA>
C15H14O6

$$$$

  Mrv0541 04051115152D          

 33 36  0  0  0  0            999 V2000
   -2.3023    0.9070    0.0000 O   0  0  0  0  0  0  0  0  0  0  0  0
   -1.5879    1.3195    0.0000 C   0  0  0  0  0  0  0  0  0  0  0  0
   -1.5879    2.1445    0.0000 C   0  0  0  0  0  0  0  0  0  0  0  0
   -2.3023    2.5570    0.0000 O   0  0  0  0  0  0  0  0  0  0  0  0
   -0.8734    2.5570    0.0000 C   0  0  0  0  0  0  0  0  0  0  0  0
   -0.8734    3.3820    0.0000 O   0  0  0  0  0  0  0  0  0  0  0  0
   -0.1589    2.1445    0.0000 C   0  0  0  0  0  0  0  0  0  0  0  0
   -0.1589    1.3195    0.0000 C   0  0  0  0  0  0  0  0  0  0  0  0
    0.5555    0.9070    0.0000 C   0  0  2  0  0  0  0  0  0  0  0  0
    1.9845    0.9070    0.0000 C   0  0  0  0  0  0  0  0  0  0  0  0
    2.6990    1.3195    0.0000 C   0  0  0  0  0  0  0  0  0  0  0  0
    3.4134    0.9070    0.0000 C   0  0  0  0  0  0  0  0  0  0  0  0
    3.4134    0.0820    0.0000 C   0  0  0  0  0  0  0  0  0  0  0  0
    2.6990   -0.3305    0.0000 C   0  0  0  0  0  0  0  0  0  0  0  0
    1.9845    0.0820    0.0000 C   0  0  0  0  0  0  0  0  0  0  0  0
    0.5555    0.0820    0.0000 C   0  0  1  0  0  0  0  0  0  0  0  0
   -0.1589   -1.1555    0.0000 C   0  0  0  0  0  0  0  0  0  0  0  0
   -0.8734   -1.5680    0.0000 C   0  0  0  0  0  0  0  0  0  0  0  0
   -0.8734   -2.3930    0.0000 C   0  0  0  0  0  0  0  0  0  0  0  0
   -1.5879   -1.1555    0.0000 C   0  0  0  0  0  0  0  0  0  0  0  0
    1.2700   -0.3305    0.0000 C   0  0  0  0  0  0  0  0  0  0  0  0
    1.2700    1.3195    0.0000 O   0  0  0  0  0  0  0  0  0  0  0  0
    4.1279    1.3195    0.0000 O   0  0  0  0  0  0  0  0  0  0  0  0
    2.6990   -1.1555    0.0000 O   0  0  0  0  0  0  0  0  0  0  0  0
   -0.8734    0.9070    0.0000 C   0  0  0  0  0  0  0  0  0  0  0  0
   -0.1589   -0.3305    0.0000 O   0  0  0  0  0  0  0  0  0  0  0  0
    0.5555   -1.5680    0.0000 O   0  0  0  0  0  0  0  0  0  0  0  0
   -2.3023   -1.5680    0.0000 C   0  0  0  0  0  0  0  0  0  0  0  0
   -3.0168   -1.1555    0.0000 O   0  0  0  0  0  0  0  0  0  0  0  0
   -2.3023   -2.3930    0.0000 C   0  0  0  0  0  0  0  0  0  0  0  0
   -3.0168   -2.8055    0.0000 O   0  0  0  0  0  0  0  0  0  0  0  0
   -1.5879   -2.8055    0.0000 C   0  0  0  0  0  0  0  0  0  0  0  0
   -1.5879   -3.6305    0.0000 O   0  0  0  0  0  0  0  0  0  0  0  0
  2  1  1  0  0  0  0
  2  3  2  0  0  0  0
  2 25  1  0  0  0  0
  3  4  1  0  0  0  0
  3  5  1  0  0  0  0
  5  6  1  0  0  0  0
  7  5  2  0  0  0  0
  7  8  1  0  0  0  0
  9  8  1  1  0  0  0
  8 25  2  0  0  0  0
  9 16  1  0  0  0  0
  9 22  1  0  0  0  0
 10 11  2  0  0  0  0
 10 15  1  0  0  0  0
 10 22  1  0  0  0  0
 11 12  1  0  0  0  0
 12 13  2  0  0  0  0
 12 23  1  0  0  0  0
 13 14  1  0  0  0  0
 14 15  2  0  0  0  0
 14 24  1  0  0  0  0
 21 15  1  0  0  0  0
 21 16  1  0  0  0  0
 16 26  1  1  0  0  0
 17 18  1  0  0  0  0
 17 26  1  0  0  0  0
 17 27  2  0  0  0  0
 18 19  2  0  0  0  0
 18 20  1  0  0  0  0
 19 32  1  0  0  0  0
 20 28  2  0  0  0  0
 28 29  1  0  0  0  0
 28 30  1  0  0  0  0
 30 31  1  0  0  0  0
 30 32  2  0  0  0  0
 32 33  1  0  0  0  0
M  END
>  <MOLREGNO>
67987

>  <CHEMBLID>
CHEMBL297453

>  <SYNONYMS>
(-)-Epigallocatechin Gallate

>  <MAX_PHASE>
0

>  <MOLWEIGHT>
458.37

>  <ALOGP>
3.1

>  <PSA>
197.36

>  <HBA>
11

>  <HBD>
8

>  <RO5>
2

>  <RTB>
4

>  <RO3>
N

>  <ACD_MOST_APKA>
7.75

>  <ACD_MOST_BPKA>


>  <ACD_LOGP>
.64

>  <ACD_LOGD>
.48

>  <AROMATIC_RINGS>
3

>  <HEAVY_ATOMS>
33

>  <QED_WEIGHTED>
.21

>  <HBA_LIPINSKI>
11

>  <HBD_LIPINSKI>
8

>  <NUM_LIPINSKI_RO5_VIOLATIONS>
2

>  <MW_MONOISOTOPIC>
458.0849

>  <MOLECULAR_SPECIES>
NEUTRAL

>  <FULL_MOLFORMULA>
C22H18O11

$$$$

  SciTegic01161211212D

 32 35  0  0  0  0            999 V2000
   12.6652    1.8084    0.0000 C   0  0
   12.6641    0.9810    0.0000 C   0  0
   13.3789    0.5681    0.0000 C   0  0
   13.3771    2.2211    0.0000 C   0  0
   11.9507    2.2207    0.0000 O   0  0
   13.3787   -0.2569    0.0000 O   0  0
   14.0925    1.8120    0.0000 C   0  0
   14.0913    0.9789    0.0000 C   0  0
   14.8082    0.5637    0.0000 C   0  0
   15.5308    0.9769    0.0000 C   0  0  2  0  0  0
   15.5320    1.8099    0.0000 C   0  0  2  0  0  0
   14.8106    2.2298    0.0000 O   0  0
   16.2475    2.2207    0.0000 C   0  0
   16.2441    0.5623    0.0000 O   0  0
   16.9595    1.8021    0.0000 C   0  0
   17.6745    2.2122    0.0000 C   0  0
   17.6770    3.0381    0.0000 C   0  0
   16.9585    3.4522    0.0000 C   0  0
   16.2465    3.0397    0.0000 C   0  0
   16.9576    4.2812    0.0000 O   0  0
   18.3919    3.4498    0.0000 O   0  0
   16.2418   -0.2626    0.0000 C   0  0
   16.9551   -0.6772    0.0000 C   0  0
   15.5262   -0.6731    0.0000 O   0  0
   16.9491   -1.5011    0.0000 C   0  0
   17.6615   -1.9155    0.0000 C   0  0
   18.3781   -1.5050    0.0000 C   0  0
   18.3778   -0.6757    0.0000 C   0  0
   17.6648   -0.2650    0.0000 C   0  0
   19.0920   -0.2627    0.0000 O   0  0
   19.0920   -1.9185    0.0000 O   0  0
   17.6588   -2.7405    0.0000 O   0  0
  3  8  2  0
 15 16  1  0
  1  2  2  0
 16 17  2  0
  7  4  2  0
 17 18  1  0
  4  1  1  0
 18 19  2  0
 19 13  1  0
 18 20  1  0
  1  5  1  0
 17 21  1  0
  7 12  1  0
 14 22  1  0
  8  9  1  0
 22 23  1  0
  9 10  1  0
 22 24  2  0
 10 11  1  0
 23 25  2  0
 11 12  1  0
 25 26  1  0
  2  3  1  0
 26 27  2  0
 11 13  1  6
 27 28  1  0
  3  6  1  0
 28 29  2  0
 29 23  1  0
 10 14  1  6
 28 30  1  0
  7  8  1  0
 27 31  1  0
 13 15  2  0
 26 32  1  0
M  END
>  <MOLREGNO>
56344

>  <CHEMBLID>
CHEMBL36327

>  <SYNONYMS>
Epicatechin Gallate | (-)-Epicatechin Gallate

>  <MAX_PHASE>
0

>  <MOLWEIGHT>
442.37

>  <ALOGP>
3.34

>  <PSA>
177.14

>  <HBA>
10

>  <HBD>
7

>  <RO5>
1

>  <RTB>
4

>  <RO3>
N

>  <ACD_MOST_APKA>
7.75

>  <ACD_MOST_BPKA>


>  <ACD_LOGP>
2.02

>  <ACD_LOGD>
1.82

>  <AROMATIC_RINGS>
3

>  <HEAVY_ATOMS>
32

>  <QED_WEIGHTED>
.23

>  <HBA_LIPINSKI>
10

>  <HBD_LIPINSKI>
7

>  <NUM_LIPINSKI_RO5_VIOLATIONS>
1

>  <MW_MONOISOTOPIC>
442.09

>  <MOLECULAR_SPECIES>
NEUTRAL

>  <FULL_MOLFORMULA>
C22H18O10

$$$$

  CDK    9/16/09,9:42

 20 19  0  0  0  0  0  0  0  0999 V2000
   10.4315   -9.2094    0.0000 C   0  0  0  0  0  0  0  0  0  0  0  0
   11.1480  -10.4449    0.0000 O   0  0  0  0  0  0  0  0  0  0  0  0
   11.1480   -9.6198    0.0000 C   0  0  0  0  0  0  0  0  0  0  0  0
   10.4315   -8.3844    0.0000 C   0  0  0  0  0  0  0  0  0  0  0  0
   11.1480   -7.9740    0.0000 C   0  0  0  0  0  0  0  0  0  0  0  0
   11.1480   -7.1490    0.0000 C   0  0  0  0  0  0  0  0  0  0  0  0
   11.8602   -6.7385    0.0000 O   0  0  0  0  0  0  0  0  0  0  0  0
   12.5788   -9.6220    0.0000 C   0  0  0  0  0  0  0  0  0  0  0  0
   13.2911   -8.3866    0.0000 O   0  0  0  0  0  0  0  0  0  0  0  0
   13.2911   -9.2115    0.0000 C   0  0  0  0  0  0  0  0  0  0  0  0
   12.5788  -10.4470    0.0000 C   0  0  0  0  0  0  0  0  0  0  0  0
   13.2911  -10.8574    0.0000 S   0  0  0  0  0  0  0  0  0  0  0  0
   14.7217   -9.2133    0.0000 C   0  0  0  0  0  0  0  0  0  0  0  0
   15.4341  -10.4488    0.0000 O   0  0  0  0  0  0  0  0  0  0  0  0
   15.4341   -9.6237    0.0000 C   0  0  0  0  0  0  0  0  0  0  0  0
    9.7244   -9.6198    0.0000 N   0  0  0  0  0  0  0  0  0  0  0  0
   10.4315   -6.7385    0.0000 O   0  0  0  0  0  0  0  0  0  0  0  0
   11.8640   -9.2101    0.0000 N   0  0  0  0  0  0  0  0  0  0  0  0
   14.0059   -9.6234    0.0000 N   0  0  0  0  0  0  0  0  0  0  0  0
   16.1464   -9.2133    0.0000 O   0  0  0  0  0  0  0  0  0  0  0  0
  1  3  1  0  0  0  0 
  3  2  2  0  0  0  0 
  1  4  1  1  0  0  0 
  4  5  1  0  0  0  0 
  5  6  1  0  0  0  0 
  6  7  2  0  0  0  0 
  8 10  1  0  0  0  0 
 10  9  2  0  0  0  0 
  8 11  1  6  0  0  0 
 11 12  1  0  0  0  0 
 13 15  1  0  0  0  0 
 15 14  2  0  0  0  0 
 16  1  1  0  0  0  0 
 18  8  1  0  0  0  0 
  3 18  1  0  0  0  0 
 19 13  1  0  0  0  0 
 10 19  1  0  0  0  0 
  6 17  1  0  0  0  0 
 15 20  1  0  0  0  0 
M  END
>  <MOLREGNO>
485731

>  <CHEMBLID>
CHEMBL454299

>  <SYNONYMS>


>  <MAX_PHASE>
0

>  <MOLWEIGHT>
307.32

>  <ALOGP>
-4.77

>  <PSA>
197.61

>  <HBA>
8

>  <HBD>
6

>  <RO5>
1

>  <RTB>
9

>  <RO3>
N

>  <ACD_MOST_APKA>
3.19

>  <ACD_MOST_BPKA>
8.67

>  <ACD_LOGP>
-1.2

>  <ACD_LOGD>
-4.72

>  <AROMATIC_RINGS>
0

>  <HEAVY_ATOMS>
20

>  <QED_WEIGHTED>
.23

>  <HBA_LIPINSKI>
9

>  <HBD_LIPINSKI>
6

>  <NUM_LIPINSKI_RO5_VIOLATIONS>
1

>  <MW_MONOISOTOPIC>
307.0838

>  <MOLECULAR_SPECIES>
ZWITTERION

>  <FULL_MOLFORMULA>
C10H17N3O6S

$$$$

  Mrv0541 04051115152D          

 22 24  0  0  0  0            999 V2000
    0.5290   -0.3234    0.0000 O   0  0  0  0  0  0  0  0  0  0  0  0
   -0.1854    0.0891    0.0000 C   0  0  1  0  0  0  0  0  0  0  0  0
   -0.1854    0.9141    0.0000 C   0  0  1  0  0  0  0  0  0  0  0  0
    0.5290    1.3266    0.0000 C   0  0  0  0  0  0  0  0  0  0  0  0
    1.2435    0.9141    0.0000 C   0  0  0  0  0  0  0  0  0  0  0  0
    1.9580    1.3266    0.0000 C   0  0  0  0  0  0  0  0  0  0  0  0
    2.6724    0.9141    0.0000 C   0  0  0  0  0  0  0  0  0  0  0  0
    2.6724    0.0891    0.0000 C   0  0  0  0  0  0  0  0  0  0  0  0
    1.9580   -0.3234    0.0000 C   0  0  0  0  0  0  0  0  0  0  0  0
    1.2435    0.0891    0.0000 C   0  0  0  0  0  0  0  0  0  0  0  0
   -0.8999   -0.3234    0.0000 C   0  0  0  0  0  0  0  0  0  0  0  0
   -0.8999   -1.1484    0.0000 C   0  0  0  0  0  0  0  0  0  0  0  0
   -1.6144   -1.5609    0.0000 C   0  0  0  0  0  0  0  0  0  0  0  0
   -2.3289   -1.1484    0.0000 C   0  0  0  0  0  0  0  0  0  0  0  0
   -2.3289   -0.3234    0.0000 C   0  0  0  0  0  0  0  0  0  0  0  0
   -1.6144    0.0891    0.0000 C   0  0  0  0  0  0  0  0  0  0  0  0
   -0.8999    1.3266    0.0000 O   0  0  0  0  0  0  0  0  0  0  0  0
    1.9580    2.1516    0.0000 O   0  0  0  0  0  0  0  0  0  0  0  0
    3.3869   -0.3234    0.0000 O   0  0  0  0  0  0  0  0  0  0  0  0
   -1.6144   -2.3859    0.0000 O   0  0  0  0  0  0  0  0  0  0  0  0
   -3.0433   -1.5609    0.0000 O   0  0  0  0  0  0  0  0  0  0  0  0
   -3.0433    0.0891    0.0000 O   0  0  0  0  0  0  0  0  0  0  0  0
  2  1  1  0  0  0  0
 10  1  1  0  0  0  0
  2  3  1  0  0  0  0
  2 11  1  6  0  0  0
  3  4  1  0  0  0  0
  3 17  1  6  0  0  0
  4  5  1  0  0  0  0
  5  6  2  0  0  0  0
 10  5  1  0  0  0  0
  6  7  1  0  0  0  0
  6 18  1  0  0  0  0
  7  8  2  0  0  0  0
  8  9  1  0  0  0  0
  8 19  1  0  0  0  0
 10  9  2  0  0  0  0
 11 12  2  0  0  0  0
 11 16  1  0  0  0  0
 12 13  1  0  0  0  0
 13 14  2  0  0  0  0
 13 20  1  0  0  0  0
 14 15  1  0  0  0  0
 14 21  1  0  0  0  0
 15 16  2  0  0  0  0
 15 22  1  0  0  0  0
M  END
>  <MOLREGNO>
68102

>  <CHEMBLID>
CHEMBL47386

>  <SYNONYMS>
(-)-Epigallocatechin | Epigallocatechin

>  <MAX_PHASE>
0

>  <MOLWEIGHT>
306.27

>  <ALOGP>
1.78

>  <PSA>
130.61

>  <HBA>
7

>  <HBD>
6

>  <RO5>
1

>  <RTB>
1

>  <RO3>
N

>  <ACD_MOST_APKA>
9.02

>  <ACD_MOST_BPKA>


>  <ACD_LOGP>
-.77

>  <ACD_LOGD>
-.79

>  <AROMATIC_RINGS>
2

>  <HEAVY_ATOMS>
22

>  <QED_WEIGHTED>
.44

>  <HBA_LIPINSKI>
7

>  <HBD_LIPINSKI>
6

>  <NUM_LIPINSKI_RO5_VIOLATIONS>
1

>  <MW_MONOISOTOPIC>
306.074

>  <MOLECULAR_SPECIES>
NEUTRAL

>  <FULL_MOLFORMULA>
C15H14O7

$$$$

  SciTegic12231509382D

 16 15  0  0  0  0            999 V2000
    4.1404  -16.2544    0.0000 N   0  0
    4.8610  -15.8526    0.0000 C   0  0
    4.8733  -15.0276    0.0000 N   0  0
    5.5692  -16.2757    0.0000 N   0  0
   -2.2886  -15.8218    0.0000 N   0  0
   -3.0043  -16.2321    0.0000 C   0  0
   -3.7175  -15.8174    0.0000 N   0  0
   -3.0069  -17.0571    0.0000 N   0  0
   -1.5754  -16.2366    0.0000 C   0  0
   -0.8596  -15.8263    0.0000 C   0  0
   -0.1464  -16.2410    0.0000 C   0  0
    0.5693  -15.8307    0.0000 C   0  0
    1.2825  -16.2454    0.0000 C   0  0
    1.9982  -15.8352    0.0000 C   0  0
    2.7114  -16.2499    0.0000 C   0  0
    3.4272  -15.8396    0.0000 C   0  0
 10 11  1  0
  5  6  1  0
 11 12  1  0
  2  3  2  0
 12 13  1  0
  6  7  2  0
 13 14  1  0
 14 15  1  0
  6  8  1  0
 15 16  1  0
 16  1  1  0
  2  4  1  0
  5  9  1  0
  1  2  1  0
  9 10  1  0
M  END
>  <MOLREGNO>
118380

>  <CHEMBLID>
CHEMBL73634

>  <SYNONYMS>


>  <MAX_PHASE>
0

>  <MOLWEIGHT>
228.34

>  <ALOGP>
.72

>  <PSA>
123.8

>  <HBA>
2

>  <HBD>
6

>  <RO5>
1

>  <RTB>
11

>  <RO3>
N

>  <ACD_MOST_APKA>


>  <ACD_MOST_BPKA>
13.91

>  <ACD_LOGP>
-.87

>  <ACD_LOGD>
-3.87

>  <AROMATIC_RINGS>
0

>  <HEAVY_ATOMS>
16

>  <QED_WEIGHTED>
.18

>  <HBA_LIPINSKI>
6

>  <HBD_LIPINSKI>
8

>  <NUM_LIPINSKI_RO5_VIOLATIONS>
1

>  <MW_MONOISOTOPIC>
228.2062

>  <MOLECULAR_SPECIES>
BASE

>  <FULL_MOLFORMULA>
C10H24N6

$$$$

  SciTegic12231509382D

 14 13  0  0  0  0            999 V2000
    5.1189  -10.5114    0.0000 N   0  0
    5.8395  -10.1096    0.0000 C   0  0
    5.8517   -9.2846    0.0000 N   0  0
    6.5477  -10.5327    0.0000 N   0  0
    0.1164  -10.0818    0.0000 N   0  0
   -0.5993  -10.4921    0.0000 C   0  0
   -1.3125  -10.0773    0.0000 N   0  0
   -0.6019  -11.3171    0.0000 N   0  0
    0.8296  -10.4965    0.0000 C   0  0
    1.5454  -10.0863    0.0000 C   0  0
    2.2585  -10.5010    0.0000 C   0  0
    2.9743  -10.0907    0.0000 C   0  0
    3.6875  -10.5055    0.0000 C   0  0
    4.4032  -10.0952    0.0000 C   0  0
  9 10  1  0
 10 11  1  0
  5  6  1  0
 11 12  1  0
  2  3  2  0
 12 13  1  0
  6  7  2  0
 13 14  1  0
 14  1  1  0
  6  8  1  0
  2  4  1  0
  5  9  1  0
  1  2  1  0
M  END
>  <MOLREGNO>
118922

>  <CHEMBLID>
CHEMBL75214

>  <SYNONYMS>


>  <MAX_PHASE>
0

>  <MOLWEIGHT>
200.28

>  <ALOGP>
-.19

>  <PSA>
123.8

>  <HBA>
2

>  <HBD>
6

>  <RO5>
1

>  <RTB>
9

>  <RO3>
N

>  <ACD_MOST_APKA>


>  <ACD_MOST_BPKA>
13.91

>  <ACD_LOGP>
-1.89

>  <ACD_LOGD>
-4.89

>  <AROMATIC_RINGS>
0

>  <HEAVY_ATOMS>
14

>  <QED_WEIGHTED>
.18

>  <HBA_LIPINSKI>
6

>  <HBD_LIPINSKI>
8

>  <NUM_LIPINSKI_RO5_VIOLATIONS>
1

>  <MW_MONOISOTOPIC>
200.1749

>  <MOLECULAR_SPECIES>
BASE

>  <FULL_MOLFORMULA>
C8H20N6

$$$$

          11280715172D 1   1.00000     0.00000     0

 15 14  0     0  0            999 V2000
    7.8667    0.1708    0.0000 C   0  0  0  0  0  0           0  0  0
    0.7375    0.1708    0.0000 C   0  0  0  0  0  0           0  0  0
    8.5792   -0.2417    0.0000 N   0  0  0  0  0  0           0  0  0
    0.0250   -0.2417    0.0000 N   0  0  0  0  0  0           0  0  0
    1.4542   -0.2417    0.0000 N   0  0  0  0  0  0           0  0  0
    7.1542   -0.2417    0.0000 N   0  0  0  0  0  0           0  0  0
    0.7375    0.9958    0.0000 N   0  0  0  0  0  0           0  0  0
    7.8667    0.9958    0.0000 N   0  0  0  0  0  0           0  0  0
    6.4417    0.1708    0.0000 C   0  0  0  0  0  0           0  0  0
    2.1667    0.1708    0.0000 C   0  0  0  0  0  0           0  0  0
    2.8792   -0.2417    0.0000 C   0  0  0  0  0  0           0  0  0
    5.7292   -0.2417    0.0000 C   0  0  0  0  0  0           0  0  0
    3.5917    0.1708    0.0000 C   0  0  0  0  0  0           0  0  0
    4.3042   -0.2417    0.0000 C   0  0  0  0  0  0           0  0  0
    5.0167    0.1708    0.0000 C   0  0  0  0  0  0           0  0  0
  2  5  1  0     0  0
  3  1  2  0     0  0
  4  2  2  0     0  0
  5 10  1  0     0  0
  6  1  1  0     0  0
  7  2  1  0     0  0
  8  1  1  0     0  0
  9  6  1  0     0  0
 10 11  1  0     0  0
 11 13  1  0     0  0
 12  9  1  0     0  0
 13 14  1  0     0  0
 14 15  1  0     0  0
 15 12  1  0     0  0
M  END
>  <MOLREGNO>
169817

>  <CHEMBLID>
CHEMBL102487

>  <SYNONYMS>


>  <MAX_PHASE>
0

>  <MOLWEIGHT>
214.31

>  <ALOGP>
.27

>  <PSA>
123.8

>  <HBA>
2

>  <HBD>
6

>  <RO5>
1

>  <RTB>
10

>  <RO3>
N

>  <ACD_MOST_APKA>


>  <ACD_MOST_BPKA>
13.91

>  <ACD_LOGP>
-1.38

>  <ACD_LOGD>
-4.38

>  <AROMATIC_RINGS>
0

>  <HEAVY_ATOMS>
15

>  <QED_WEIGHTED>
.18

>  <HBA_LIPINSKI>
6

>  <HBD_LIPINSKI>
8

>  <NUM_LIPINSKI_RO5_VIOLATIONS>
1

>  <MW_MONOISOTOPIC>
214.1906

>  <MOLECULAR_SPECIES>
BASE

>  <FULL_MOLFORMULA>
C9H22N6

$$$$

  SciTegic12231509382D

 12 11  0  0  0  0            999 V2000
   12.5093   -1.7980    0.0000 C   0  0
   11.7944   -1.3861    0.0000 C   0  0
   11.0837   -1.7980    0.0000 C   0  0
   10.3689   -1.3861    0.0000 C   0  0
   13.2241   -1.3861    0.0000 N   0  0
   13.2241   -0.5622    0.0000 C   0  0
   12.5093   -0.1503    0.0000 N   0  0
   13.9349   -0.1503    0.0000 N   0  0
    9.6540   -1.7980    0.0000 N   0  0
    8.9433   -1.3861    0.0000 C   0  0
    8.2284   -1.7980    0.0000 N   0  0
    8.9433   -0.5622    0.0000 N   0  0
  5  6  1  0
  6  7  1  0
  6  8  2  0
  1  5  1  0
  9 10  1  0
 10 11  1  0
 10 12  2  0
  4  9  1  0
  1  2  1  0
  2  3  1  0
  3  4  1  0
M  END
>  <MOLREGNO>
170071

>  <CHEMBLID>
CHEMBL102740

>  <SYNONYMS>
Arcaine | 1-(4-Guanidinobutyl)Guanidine | Arcaine Sulfate

>  <MAX_PHASE>
0

>  <MOLWEIGHT>
172.23

>  <ALOGP>
-1.1

>  <PSA>
123.79

>  <HBA>
2

>  <HBD>
6

>  <RO5>
1

>  <RTB>
7

>  <RO3>
N

>  <ACD_MOST_APKA>


>  <ACD_MOST_BPKA>
13.92

>  <ACD_LOGP>
-2.38

>  <ACD_LOGD>
-5.38

>  <AROMATIC_RINGS>
0

>  <HEAVY_ATOMS>
12

>  <QED_WEIGHTED>
.17

>  <HBA_LIPINSKI>
6

>  <HBD_LIPINSKI>
8

>  <NUM_LIPINSKI_RO5_VIOLATIONS>
1

>  <MW_MONOISOTOPIC>
172.1436

>  <MOLECULAR_SPECIES>
BASE

>  <FULL_MOLFORMULA>
C6H16N6

$$$$

          11280715172D 1   1.00000     0.00000     0

 13 12  0     0  0            999 V2000
    7.8667    0.1708    0.0000 C   0  0  0  0  0  0           0  0  0
    2.1625    0.1708    0.0000 C   0  0  0  0  0  0           0  0  0
    8.5792   -0.2417    0.0000 N   0  0  0  0  0  0           0  0  0
    2.1625    0.9958    0.0000 N   0  0  0  0  0  0           0  0  0
    2.8792   -0.2417    0.0000 N   0  0  0  0  0  0           0  0  0
    7.1542   -0.2417    0.0000 N   0  0  0  0  0  0           0  0  0
    1.4500   -0.2417    0.0000 N   0  0  0  0  0  0           0  0  0
    7.8667    0.9958    0.0000 N   0  0  0  0  0  0           0  0  0
    6.4417    0.1708    0.0000 C   0  0  0  0  0  0           0  0  0
    3.5917    0.1708    0.0000 C   0  0  0  0  0  0           0  0  0
    4.3042   -0.2417    0.0000 C   0  0  0  0  0  0           0  0  0
    5.7292   -0.2417    0.0000 C   0  0  0  0  0  0           0  0  0
    5.0167    0.1708    0.0000 C   0  0  0  0  0  0           0  0  0
  2  5  1  0     0  0
  3  1  2  0     0  0
  4  2  2  0     0  0
  5 10  1  0     0  0
  6  1  1  0     0  0
  7  2  1  0     0  0
  8  1  1  0     0  0
  9  6  1  0     0  0
 10 11  1  0     0  0
 11 13  1  0     0  0
 12  9  1  0     0  0
 13 12  1  0     0  0
M  END
>  <MOLREGNO>
170125

>  <CHEMBLID>
CHEMBL101996

>  <SYNONYMS>


>  <MAX_PHASE>
0

>  <MOLWEIGHT>
186.26

>  <ALOGP>
-.65

>  <PSA>
123.8

>  <HBA>
2

>  <HBD>
6

>  <RO5>
1

>  <RTB>
8

>  <RO3>
N

>  <ACD_MOST_APKA>


>  <ACD_MOST_BPKA>
13.91

>  <ACD_LOGP>
-2.4

>  <ACD_LOGD>
-5.4

>  <AROMATIC_RINGS>
0

>  <HEAVY_ATOMS>
13

>  <QED_WEIGHTED>
.17

>  <HBA_LIPINSKI>
6

>  <HBD_LIPINSKI>
8

>  <NUM_LIPINSKI_RO5_VIOLATIONS>
1

>  <MW_MONOISOTOPIC>
186.1593

>  <MOLECULAR_SPECIES>
BASE

>  <FULL_MOLFORMULA>
C7H18N6

$$$$

  SciTegic01161211222D

 33 36  0  0  0  0            999 V2000
   -4.6098   -5.6208    0.0000 C   0  0
   -4.6109   -6.4482    0.0000 C   0  0
   -3.8961   -6.8610    0.0000 C   0  0
   -3.8979   -5.2080    0.0000 C   0  0
   -5.3243   -5.2085    0.0000 O   0  0
   -3.8963   -7.6860    0.0000 O   0  0
   -3.1825   -5.6172    0.0000 C   0  0
   -3.1837   -6.4502    0.0000 C   0  0
   -2.4668   -6.8655    0.0000 C   0  0
   -1.7442   -6.4523    0.0000 C   0  0  2  0  0  0
   -1.7430   -5.6192    0.0000 C   0  0  1  0  0  0
   -2.4644   -5.1994    0.0000 O   0  0
   -1.0275   -5.2085    0.0000 C   0  0
   -1.0309   -6.8668    0.0000 O   0  0
   -0.3155   -5.6270    0.0000 C   0  0
    0.3995   -5.2170    0.0000 C   0  0
    0.4020   -4.3911    0.0000 C   0  0
   -0.3165   -3.9770    0.0000 C   0  0
   -1.0285   -4.3895    0.0000 C   0  0
   -0.3174   -3.1520    0.0000 O   0  0
    1.1169   -3.9794    0.0000 O   0  0
    1.1128   -5.6316    0.0000 O   0  0
   -1.0332   -7.6918    0.0000 C   0  0
   -0.3199   -8.1063    0.0000 C   0  0
   -1.7488   -8.1023    0.0000 O   0  0
   -0.3259   -8.9302    0.0000 C   0  0
    0.3865   -9.3447    0.0000 C   0  0
    1.1031   -8.9341    0.0000 C   0  0
    1.1028   -8.1049    0.0000 C   0  0
    0.3898   -7.6942    0.0000 C   0  0
    1.8170   -7.6918    0.0000 O   0  0
    1.8170   -9.3477    0.0000 O   0  0
    0.3838  -10.1697    0.0000 O   0  0
 15 16  1  0
  1  2  2  0
 16 17  2  0
  7  4  2  0
 17 18  1  0
  4  1  1  0
 18 19  2  0
 19 13  1  0
 18 20  1  0
  1  5  1  0
 17 21  1  0
  7 12  1  0
 16 22  1  0
  8  9  1  0
 14 23  1  0
  9 10  1  0
 23 24  1  0
 10 11  1  0
 23 25  2  0
 11 12  1  0
 24 26  2  0
  2  3  1  0
 26 27  1  0
 11 13  1  1
 27 28  2  0
  3  6  1  0
 28 29  1  0
 10 14  1  6
 29 30  2  0
 30 24  1  0
  7  8  1  0
 29 31  1  0
 13 15  2  0
 28 32  1  0
  3  8  2  0
 27 33  1  0
M  END
>  <MOLREGNO>
433006

>  <CHEMBLID>
CHEMBL264938

>  <SYNONYMS>
(-)-GALLOCATECHIN GALLATE

>  <MAX_PHASE>
0

>  <MOLWEIGHT>
458.37

>  <ALOGP>
3.1

>  <PSA>
197.36

>  <HBA>
11

>  <HBD>
8

>  <RO5>
2

>  <RTB>
4

>  <RO3>
N

>  <ACD_MOST_APKA>
7.75

>  <ACD_MOST_BPKA>


>  <ACD_LOGP>
.64

>  <ACD_LOGD>
.48

>  <AROMATIC_RINGS>
3

>  <HEAVY_ATOMS>
33

>  <QED_WEIGHTED>
.21

>  <HBA_LIPINSKI>
11

>  <HBD_LIPINSKI>
8

>  <NUM_LIPINSKI_RO5_VIOLATIONS>
2

>  <MW_MONOISOTOPIC>
458.0849

>  <MOLECULAR_SPECIES>
NEUTRAL

>  <FULL_MOLFORMULA>
C22H18O11

$$$$

  SciTegic12231509382D

 13 14  0  0  0  0            999 V2000
    4.1379    2.9844    0.0000 N   0  0
    3.4258    2.5872    0.0000 C   0  0
    4.8645    1.7539    0.0000 N   0  0
    4.8645    2.5872    0.0000 C   0  0
    3.4258    1.7539    0.0000 C   0  0
    4.1379    1.3373    0.0000 C   0  0
    2.6410    2.8197    0.0000 N   0  0
    2.6410    1.4972    0.0000 N   0  0
    2.1469    2.1657    0.0000 C   0  0
    5.5766    2.9844    0.0000 O   0  0
    4.1379    0.5090    0.0000 O   0  0
    4.1379    3.8176    0.0000 C   0  0
    5.5766    1.3373    0.0000 C   0  0
  2  1  1  0
  3  4  1  0
  4  1  1  0
  5  2  2  0
  6  3  1  0
  7  2  1  0
  8  5  1  0
  9  7  2  0
 10  4  2  0
 11  6  2  0
 12  1  1  0
 13  3  1  0
  5  6  1  0
  8  9  1  0
M  END
>  <MOLREGNO>
381693

>  <CHEMBLID>
CHEMBL190

>  <SYNONYMS>
Elixicon | THEOPHYLLAMINE | Theophylline-sr | AMINOPHYLLINE | Respbid | BUFYLLINE | Aerolate iii | OXTRIPHYLLINE PEDIATRIC | Quibron | Theobid jr. | Labid | CHOLINE THEOPHYLLINE | AMINOPHYLLINE DYE FREE | Sustaire | Theovent | Theolixir | T-phyl | OXTRIPHYLLINE | Somophyllin-crt | BUTAPHYLLAMINE | Ammophyllin | Theoclear l.a.-130 | Slo-phyllin | Quibron-t/sr | THEOPHYLLINE | AMINOPHYLLINE IN SODIUM CHLORIDE | Slo-bid | Aquaphyllin | Theolair-sr | Theo-Dur | DIMETHYLXANTHINE | CHOLINE THEOPHYLLINATE | Bronkodyl | CHOLEDYL | Aerolate sr | Theoclear-100 | Elixophyllin sr | Peterphyllin | Elixomin | TRUPHYLLINE | Theophyl | Uni-dur | Theophyl-225 | Theoclear-80 | ELIXOPHYLLIN | Theolair | AMBUPHYLLINE | Theoclear l.a.-260 | Theophyl-sr | Theoclear-200 | Somophyllin-t | THEOPHYLLINE ETHYLENEDIAMINE | Lanophyllin | Accurbron | Somophyllin-df | Theocin | THEOPHYLLINE OLAMINE | Phyllocontin | Quibron-t | CHOLEDYL SA | Aerolate | Aerolate jr | SOMOPHYLLIN | THEOCHRON | UNIPHYL | THEO-24 | Theobid | Duraphyl | Aminophyllin

>  <MAX_PHASE>
4

>  <MOLWEIGHT>
180.16

>  <ALOGP>
-.31

>  <PSA>
69.3

>  <HBA>
3

>  <HBD>
1

>  <RO5>
0

>  <RTB>
0

>  <RO3>
N

>  <ACD_MOST_APKA>
8.6

>  <ACD_MOST_BPKA>
1.84

>  <ACD_LOGP>
-.02

>  <ACD_LOGD>
-.05

>  <AROMATIC_RINGS>
1

>  <HEAVY_ATOMS>
13

>  <QED_WEIGHTED>
.6

>  <HBA_LIPINSKI>
6

>  <HBD_LIPINSKI>
1

>  <NUM_LIPINSKI_RO5_VIOLATIONS>
0

>  <MW_MONOISOTOPIC>
180.0647

>  <MOLECULAR_SPECIES>
NEUTRAL

>  <FULL_MOLFORMULA>
C7H8N4O2

$$$$

          11280715362D 1   1.00000     0.00000     0

 41 46  0     1  0            999 V2000
    8.0542   -3.6042    0.0000 C   0  0  0  0  0  0           0  0  0
    7.3500   -4.0167    0.0000 C   0  0  0  0  0  0           0  0  0
    6.4000   -3.0542    0.0000 C   0  0  0  0  0  0           0  0  0
    7.3500   -4.8375    0.0000 C   0  0  0  0  0  0           0  0  0
    6.6667   -3.8167    0.0000 C   0  0  0  0  0  0           0  0  0
    5.9167   -4.8292    0.0000 O   0  0  0  0  0  0           0  0  0
    4.8667   -3.3542    0.0000 O   0  0  0  0  0  0           0  0  0
    5.2042   -5.2417    0.0000 C   0  0  0  0  0  0           0  0  0
    4.1542   -2.9417    0.0000 C   0  0  0  0  0  0           0  0  0
    8.2292   -2.9375    0.0000 C   0  0  0  0  0  0           0  0  0
    6.6292   -5.2417    0.0000 C   0  0  1  0  0  0           0  0  0
    5.2000   -6.0667    0.0000 C   0  0  0  0  0  0           0  0  0
    4.1542   -2.1167    0.0000 C   0  0  0  0  0  0           0  0  0
    7.7167   -2.3167    0.0000 C   0  0  0  0  0  0           0  0  0
    5.5792   -2.9417    0.0000 C   0  0  1  0  0  0           0  0  0
    6.8875   -2.3625    0.0000 C   0  0  0  0  0  0           0  0  0
    8.7792   -4.0167    0.0000 C   0  0  0  0  0  0           0  0  0
    8.0625   -5.2542    0.0000 C   0  0  0  0  0  0           0  0  0
    5.9167   -6.4875    0.0000 C   0  0  0  0  0  0           0  0  0
    4.8667   -1.7042    0.0000 C   0  0  0  0  0  0           0  0  0
    4.4875   -6.4875    0.0000 C   0  0  0  0  0  0           0  0  0
    3.4500   -1.7042    0.0000 C   0  0  0  0  0  0           0  0  0
    8.7750   -4.8417    0.0000 C   0  0  0  0  0  0           0  0  0
    6.6292   -6.0750    0.0000 C   0  0  1  0  0  0           0  0  0
    5.5792   -2.1167    0.0000 C   0  0  1  0  0  0           0  0  0
    4.4875   -4.8292    0.0000 C   0  0  0  0  0  0           0  0  0
    3.4417   -3.3542    0.0000 C   0  0  0  0  0  0           0  0  0
    2.7292   -2.1167    0.0000 C   0  0  0  0  0  0           0  0  0
    3.7750   -6.0750    0.0000 C   0  0  0  0  0  0           0  0  0
    2.7375   -2.9417    0.0000 C   0  0  0  0  0  0           0  0  0
    3.7750   -5.2417    0.0000 C   0  0  0  0  0  0           0  0  0
    9.0375   -2.7542    0.0000 O   0  0  0  0  0  0           0  0  0
    8.0542   -1.5625    0.0000 O   0  0  0  0  0  0           0  0  0
    9.4917   -3.6000    0.0000 O   0  0  0  0  0  0           0  0  0
    3.4417   -0.8792    0.0000 O   0  0  0  0  0  0           0  0  0
    4.4917   -7.3125    0.0000 O   0  0  0  0  0  0           0  0  0
    9.4875   -5.2542    0.0000 O   0  0  0  0  0  0           0  0  0
    7.3417   -6.4875    0.0000 O   0  0  0  0  0  0           0  0  0
    6.2917   -1.7042    0.0000 O   0  0  0  0  0  0           0  0  0
    3.0625   -4.8375    0.0000 O   0  0  0  0  0  0           0  0  0
    2.0167   -3.3542    0.0000 O   0  0  0  0  0  0           0  0  0
  2  1  2  0     0  0
  3  5  2  0     0  0
  4  2  1  0     0  0
  5  2  1  0     0  0
  6 11  1  0     0  0
  7 15  1  0     0  0
  8  6  1  0     0  0
  9  7  1  0     0  0
 10  1  1  0     0  0
 11  4  1  6     0  0
 12 19  1  0     0  0
 13 20  1  0     0  0
 14 10  1  0     0  0
 15  3  1  1     0  0
 16 14  2  0     0  0
 17  1  1  0     0  0
 18 23  1  0     0  0
 19 24  1  0     0  0
 20 25  1  0     0  0
 21 12  2  0     0  0
 22 13  1  0     0  0
 23 17  2  0     0  0
 24 11  1  0     0  0
 25 15  1  0     0  0
 26  8  2  0     0  0
 27  9  1  0     0  0
 28 22  2  0     0  0
 29 21  1  0     0  0
 30 27  2  0     0  0
 31 26  1  0     0  0
 32 10  2  0     0  0
 33 14  1  0     0  0
 34 17  1  0     0  0
 35 22  1  0     0  0
 36 21  1  0     0  0
 37 23  1  0     0  0
 24 38  1  6     0  0
 25 39  1  1     0  0
 40 31  1  0     0  0
 41 30  1  0     0  0
  4 18  2  0     0  0
 16  3  1  0     0  0
  8 12  1  0     0  0
  9 13  2  0     0  0
 31 29  2  0     0  0
 28 30  1  0     0  0
M  END
>  <MOLREGNO>
268644

>  <CHEMBLID>
CHEMBL346119

>  <SYNONYMS>
Theaflavin

>  <MAX_PHASE>
0

>  <MOLWEIGHT>
564.49

>  <ALOGP>
2.63

>  <PSA>
217.59

>  <HBA>
12

>  <HBD>
9

>  <RO5>
3

>  <RTB>
2

>  <RO3>
N

>  <ACD_MOST_APKA>
6.65

>  <ACD_MOST_BPKA>


>  <ACD_LOGP>
.09

>  <ACD_LOGD>
-.83

>  <AROMATIC_RINGS>
3

>  <HEAVY_ATOMS>
41

>  <QED_WEIGHTED>
.21

>  <HBA_LIPINSKI>
12

>  <HBD_LIPINSKI>
9

>  <NUM_LIPINSKI_RO5_VIOLATIONS>
2

>  <MW_MONOISOTOPIC>
564.1268

>  <MOLECULAR_SPECIES>
NEUTRAL

>  <FULL_MOLFORMULA>
C29H24O12

$$$$

  SciTegic12231509382D

 14 15  0  0  0  0            999 V2000
   -1.1875   -9.6542    0.0000 C   0  0
   -1.1875   -8.9625    0.0000 C   0  0
   -1.8125  -10.0292    0.0000 N   0  0
   -2.4167   -8.9625    0.0000 N   0  0
   -2.4167   -9.6542    0.0000 C   0  0
   -1.8125   -8.6000    0.0000 C   0  0
   -0.5000   -9.8917    0.0000 N   0  0
   -0.5000   -8.7625    0.0000 N   0  0
   -0.1125   -9.3042    0.0000 C   0  0
   -3.0250  -10.0375    0.0000 O   0  0
   -1.8125   -7.8917    0.0000 O   0  0
   -1.8125  -10.7417    0.0000 C   0  0
   -3.0250   -8.6000    0.0000 C   0  0
   -0.2917   -8.0750    0.0000 C   0  0
  2  1  2  0
  3  1  1  0
  4  5  1  0
  5  3  1  0
  6  2  1  0
  7  1  1  0
  8  2  1  0
  9  7  2  0
 10  5  2  0
 11  6  2  0
 12  3  1  0
 13  4  1  0
 14  8  1  0
  9  8  1  0
  4  6  1  0
M  END
>  <MOLREGNO>
16485

>  <CHEMBLID>
CHEMBL113

>  <SYNONYMS>
CAFFEINE | CAFFEINE, CITRATED | CAFCIT | METHYLTHEOBROMINE | Cafcit | COFFEINE | CAFFEINE CITRATE | THEINE

>  <MAX_PHASE>
4

>  <MOLWEIGHT>
194.19

>  <ALOGP>
-.1

>  <PSA>
58.44

>  <HBA>
3

>  <HBD>
0

>  <RO5>
0

>  <RTB>
0

>  <RO3>
Y

>  <ACD_MOST_APKA>
9.97

>  <ACD_MOST_BPKA>
10.63

>  <ACD_LOGP>
1.01

>  <ACD_LOGD>
-1.82

>  <AROMATIC_RINGS>
1

>  <HEAVY_ATOMS>
14

>  <QED_WEIGHTED>
.58

>  <HBA_LIPINSKI>
6

>  <HBD_LIPINSKI>
0

>  <NUM_LIPINSKI_RO5_VIOLATIONS>
0

>  <MW_MONOISOTOPIC>
194.0804

>  <MOLECULAR_SPECIES>
BASE

>  <FULL_MOLFORMULA>
C8H10N4O2

$$$$

  SciTegic05161214222D

 72 79  0  0  0  0            999 V2000
    2.1208   -7.8250    0.0000 C   0  0  1  0  0  0
   -3.6042  -10.2875    0.0000 C   0  0  1  0  0  0
    4.1625   -7.1750    0.0000 C   0  0  1  0  0  0
    2.1083   -8.6417    0.0000 C   0  0  2  0  0  0
   -3.2375  -11.7542    0.0000 C   0  0  2  0  0  0
   -2.8917   -9.8625    0.0000 C   0  0  1  0  0  0
   -0.0292   -9.0375    0.0000 C   0  0  1  0  0  0
   -4.3167   -9.0375    0.0000 C   0  0  1  0  0  0
   -2.4875  -11.7542    0.0000 C   0  0  1  0  0  0
   -4.3167   -9.8667    0.0000 C   0  0  2  0  0  0
    2.8958   -7.5750    0.0000 C   0  0  2  0  0  0
   -2.1125  -12.4125    0.0000 C   0  0  2  0  0  0
   -0.0375   -9.8625    0.0000 C   0  0  2  0  0  0
    4.1583   -7.9917    0.0000 O   0  0
    3.3750   -8.2375    0.0000 C   0  0  1  0  0  0
   -3.6125  -11.1042    0.0000 O   0  0
    0.6833   -8.6250    0.0000 C   0  0  2  0  0  0
    1.3875   -9.0500    0.0000 C   0  0  1  0  0  0
   -2.8917   -9.0417    0.0000 O   0  0
   -5.0292   -8.6250    0.0000 O   0  0
   -3.6125  -12.4042    0.0000 O   0  0
   -2.4875  -13.0625    0.0000 C   0  0  1  0  0  0
   -3.6042   -8.6292    0.0000 C   0  0  2  0  0  0
    2.8750   -8.9042    0.0000 C   0  0
    3.3833   -6.9125    0.0000 C   0  0  2  0  0  0
   -3.2375  -13.0542    0.0000 C   0  0  1  0  0  0
    1.4083   -7.4000    0.0000 C   0  0
    0.6708  -10.2792    0.0000 C   0  0
    1.3958   -9.8667    0.0000 C   0  0
    0.6833   -7.8042    0.0000 C   0  0
   -2.1750  -10.2792    0.0000 O   0  0
   -0.7417   -8.6250    0.0000 C   0  0
   -0.7417  -10.2750    0.0000 C   0  0
   -1.4625   -9.8625    0.0000 C   0  0  2  0  0  0
   -2.1125  -11.1125    0.0000 O   0  0
   -1.3625  -12.4125    0.0000 O   0  0
   -2.1125  -13.7125    0.0000 O   0  0
    1.8958   -7.0167    0.0000 C   0  0
   -1.4625   -9.0375    0.0000 C   0  0
   -0.0417   -8.2125    0.0000 C   0  0
   -3.6000   -7.8042    0.0000 C   0  0
    3.1375   -6.1292    0.0000 C   0  0
   -4.3167   -7.3875    0.0000 O   0  0
   -3.6125  -13.7042    0.0000 C   0  0
    1.3833   -8.2250    0.0000 H   0  0
    0.6708   -9.4500    0.0000 H   0  0
    2.4833   -6.8500    0.0000 H   0  0
   -2.3042   -9.2750    0.0000 H   0  0
    2.1083   -9.4667    0.0000 H   0  0
    3.9583   -8.8250    0.0000 H   0  0
   -2.8625  -11.1167    0.0000 H   0  0
    4.8763   -6.7613    0.0000 C   0  0
    5.5914   -7.1726    0.0000 C   0  0
    6.3052   -6.7589    0.0000 C   0  0  1  0  0  0
    7.0204   -7.1701    0.0000 C   0  0
    6.3038   -5.9339    0.0000 C   0  0
    4.1583   -6.3500    0.0000 O   0  0
    7.7341   -6.7564    0.0000 O   0  0
    8.4493   -7.1677    0.0000 C   0  0  2  0  0  0
    8.4449   -7.9971    0.0000 O   0  0
    9.1560   -8.4083    0.0000 C   0  0  1  0  0  0
    9.8722   -7.9981    0.0000 C   0  0  2  0  0  0
    9.8728   -7.1721    0.0000 C   0  0  1  0  0  0
    9.1571   -6.7564    0.0000 C   0  0  1  0  0  0
   -5.0332  -10.2756    0.0000 O   0  0
   -4.3629  -13.7044    0.0000 O   0  0
    9.1571   -5.9314    0.0000 O   0  0
   10.5858   -8.4121    0.0000 O   0  0
   10.5879   -6.7609    0.0000 O   0  0
    9.1543   -9.2333    0.0000 C   0  0
    8.4389   -9.6443    0.0000 O   0  0
   -0.0417  -10.6875    0.0000 H   0  0
 22 26  1  0
 23 19  1  0
 24  4  1  0
 25 11  1  0
 26 21  1  0
 27  1  1  0
 28 29  1  0
 29 18  1  0
 30 27  1  0
 34 31  1  1
 32  7  1  0
 33 13  1  0
 34 39  1  0
  9 35  1  6
 12 36  1  1
 22 37  1  6
  1 38  1  1
 39 32  1  0
  7 40  1  1
 23 41  1  1
 25 42  1  6
 43 41  1  0
 26 44  1  1
 18 45  1  1
 17 46  1  6
 11 47  1  6
  6 48  1  6
  4 49  1  6
 15 50  1  6
  5 51  1  6
 15 24  1  0
 17 18  1  0
  3 14  1  0
 28 13  1  0
 34 33  1  0
  8 10  1  0
 12 22  1  0
  3 52  1  0
  2  6  1  0
 52 53  1  0
  3 25  1  0
 53 54  1  0
  4  1  1  0
 54 55  1  0
  5 16  1  0
 54 56  1  6
  6 31  1  0
  3 57  1  6
  7 17  1  0
 55 58  1  0
  8 23  1  0
 59 58  1  1
 59 60  1  0
  9  5  1  0
 10  2  1  0
 11  1  1  0
 12  9  1  0
 13  7  1  0
 59 64  1  0
 60 61  1  0
 61 62  1  0
 62 63  1  0
 63 64  1  0
 14 15  1  0
 10 65  1  1
 15 11  1  0
 44 66  1  0
  2 16  1  6
 64 67  1  6
 17 30  1  0
 62 68  1  6
 18  4  1  0
 63 69  1  1
 19  6  1  0
 61 70  1  1
  8 20  1  1
 70 71  1  0
 21  5  1  0
 13 72  1  1
M  END
>  <MOLREGNO>
1283849

>  <CHEMBLID>
CHEMBL1958309

>  <SYNONYMS>
Timosaponin Bii

>  <MAX_PHASE>
0

>  <MOLWEIGHT>
921.07

>  <ALOGP>
-1.12

>  <PSA>
307.37

>  <HBA>
19

>  <HBD>
12

>  <RO5>
3

>  <RTB>
13

>  <RO3>
N

>  <ACD_MOST_APKA>


>  <ACD_MOST_BPKA>
.11

>  <ACD_LOGP>
1.81

>  <ACD_LOGD>
1.81

>  <AROMATIC_RINGS>
0

>  <HEAVY_ATOMS>
64

>  <QED_WEIGHTED>
.1

>  <HBA_LIPINSKI>
19

>  <HBD_LIPINSKI>
12

>  <NUM_LIPINSKI_RO5_VIOLATIONS>
2

>  <MW_MONOISOTOPIC>
920.4981

>  <MOLECULAR_SPECIES>
NEUTRAL

>  <FULL_MOLFORMULA>
C45H76O19

$$$$

  SciTegic11201309402D

 59 65  0  0  0  0            999 V2000
   10.6293   -7.8017    0.0000 C   0  0  2  0  0  0
   10.6293   -8.6273    0.0000 C   0  0  2  0  0  0
   11.3415   -9.0359    0.0000 C   0  0  1  0  0  0
   12.0535   -8.6273    0.0000 C   0  0  2  0  0  0
   12.0535   -7.8017    0.0000 C   0  0  1  0  0  0
   11.3415   -7.3846    0.0000 O   0  0
   12.7713   -7.3899    0.0000 O   0  0
   12.4381   -4.7800    0.0000 C   0  0
   12.4381   -5.6098    0.0000 C   0  0
   13.1502   -6.0184    0.0000 C   0  0  1  0  0  0
   13.1502   -4.3671    0.0000 C   0  0
   13.8623   -4.7800    0.0000 C   0  0  2  0  0  0
   13.8639   -5.6098    0.0000 C   0  0  2  0  0  0
   14.5787   -6.0199    0.0000 C   0  0
   15.2948   -5.6071    0.0000 C   0  0
   14.5756   -4.3686    0.0000 C   0  0  1  0  0  0
   15.2865   -4.7807    0.0000 C   0  0  2  0  0  0
   15.9988   -4.3763    0.0000 C   0  0
   16.0053   -3.5530    0.0000 C   0  0  1  0  0  0
   15.2943   -3.1366    0.0000 C   0  0
   14.5768   -3.5436    0.0000 C   0  0
   12.5594   -6.5973    0.0000 C   0  0
   13.3594   -6.8164    0.0000 C   0  0
   14.1574   -7.0308    0.0000 O   0  0
   13.8616   -6.4291    0.0000 H   0  0
   13.8553   -3.9544    0.0000 C   0  0
   14.5681   -5.1928    0.0000 H   0  0
   15.9938   -5.1949    0.0000 C   0  0
   16.7152   -3.9630    0.0000 C   0  0
   17.5162   -3.7558    0.0000 C   0  0
   16.0130   -2.7274    0.0000 O   0  0
    9.9116   -7.3899    0.0000 C   0  0
   15.9669   -1.9075    0.0000 C   0  0  2  0  0  0
   16.6630   -1.4604    0.0000 O   0  0
   16.6200   -0.6377    0.0000 C   0  0  1  0  0  0
   15.8870   -0.2634    0.0000 C   0  0  2  0  0  0
   15.1910   -0.7089    0.0000 C   0  0  1  0  0  0
   15.2362   -1.5370    0.0000 C   0  0  1  0  0  0
   17.3157   -0.1903    0.0000 C   0  0
   14.5439   -1.9899    0.0000 O   0  0
   13.8077   -1.6147    0.0000 C   0  0  2  0  0  0
   13.7692   -0.7911    0.0000 O   0  0
   13.0351   -0.4199    0.0000 C   0  0  1  0  0  0
   12.3389   -0.8676    0.0000 C   0  0  2  0  0  0
   12.3840   -1.6972    0.0000 C   0  0  1  0  0  0
   13.1212   -2.0707    0.0000 C   0  0  1  0  0  0
   12.9918    0.4041    0.0000 C   0  0
   15.2320   -2.3563    0.0000 H   0  0
   12.7685   -9.0396    0.0000 O   0  0
   11.3415   -9.8615    0.0000 O   0  0
    9.9144   -9.0396    0.0000 O   0  0
    9.9079   -6.5643    0.0000 O   0  0
   14.4617   -0.3326    0.0000 O   0  0
   15.8454    0.5649    0.0000 O   0  0
   18.0490   -0.5670    0.0000 O   0  0
   13.1665   -2.8943    0.0000 O   0  0
   11.6894   -2.1423    0.0000 O   0  0
   11.6048   -0.4925    0.0000 O   0  0
   13.6866    0.8570    0.0000 O   0  0
 10 13  1  0
 12 11  1  0
 12 13  1  0
 12 16  1  0
 13 14  1  0
 14 15  1  0
 17 15  1  6
 16 17  1  0
 16 21  1  0
 17 18  1  0
 19 18  1  0
 19 20  1  0
 20 21  1  0
 10 22  1  1
 10 23  1  0
 23  7  1  0
 23 24  2  0
 13 25  1  1
 12 26  1  6
 16 27  1  1
 17 28  1  0
 19 29  1  0
 29 28  1  0
 29 30  2  0
 19 31  1  6
  1 32  1  1
 33 34  1  0
 33 38  1  0
 34 35  1  0
 35 36  1  0
 36 37  1  0
 37 38  1  0
 35 39  1  1
 38 40  1  0
 41 40  1  1
 41 42  1  0
 41 46  1  0
 42 43  1  0
 43 44  1  0
 44 45  1  0
 45 46  1  0
 43 47  1  1
 33 31  1  1
 38 48  1  1
  1  2  1  0
  1  6  1  0
  2  3  1  0
  3  4  1  0
  4  5  1  0
  5  6  1  0
  5  7  1  1
  8  9  1  0
  8 11  1  0
  9 10  1  0
  4 49  1  6
 36 54  1  6
  2 51  1  6
 39 55  1  0
 46 56  1  6
 32 52  1  0
 45 57  1  1
  3 50  1  1
 44 58  1  6
 37 53  1  1
 47 59  1  0
M  END
>  <MOLREGNO>
443398

>  <CHEMBLID>
CHEMBL444122

>  <SYNONYMS>
Stevioside

>  <MAX_PHASE>
0

>  <MOLWEIGHT>
804.87

>  <ALOGP>
-1.73

>  <PSA>
294.97

>  <HBA>
18

>  <HBD>
11

>  <RO5>
3

>  <RTB>
10

>  <RO3>
N

>  <ACD_MOST_APKA>
10.85

>  <ACD_MOST_BPKA>
8.13

>  <ACD_LOGP>
4.74

>  <ACD_LOGD>
4

>  <AROMATIC_RINGS>
0

>  <HEAVY_ATOMS>
56

>  <QED_WEIGHTED>
.07

>  <HBA_LIPINSKI>
18

>  <HBD_LIPINSKI>
11

>  <NUM_LIPINSKI_RO5_VIOLATIONS>
2

>  <MW_MONOISOTOPIC>
804.378

>  <MOLECULAR_SPECIES>
NEUTRAL

>  <FULL_MOLFORMULA>
C38H60O18

$$$$

  SciTegic11201309402D

 71 78  0  0  0  0            999 V2000
    8.9150   -1.0994    0.0000 O   0  0
    8.1995   -0.6805    0.0000 C   0  0  1  0  0  0
    7.4794   -1.0929    0.0000 C   0  0  2  0  0  0
    7.4745   -1.9242    0.0000 O   0  0
    6.7599   -0.6764    0.0000 C   0  0  1  0  0  0
    6.0397   -1.0887    0.0000 O   0  0
    6.7647    0.1551    0.0000 C   0  0  2  0  0  0
    6.0454    0.5716    0.0000 O   0  0
    7.4850    0.5674    0.0000 C   0  0  2  0  0  0
    8.2004    0.1486    0.0000 O   0  0
    7.4858    1.3964    0.0000 C   0  0
    8.2060    1.8089    0.0000 O   0  0
   13.2314   -0.3645    0.0000 O   0  0
   11.7759   -1.1444    0.0000 O   0  0
   11.0683   -0.7200    0.0000 C   0  0  1  0  0  0
   10.3467   -1.1205    0.0000 C   0  0  2  0  0  0
   10.3325   -1.9455    0.0000 O   0  0
    9.6391   -0.6962    0.0000 C   0  0  2  0  0  0
    9.6533    0.1288    0.0000 C   0  0  2  0  0  0
    8.9458    0.5532    0.0000 O   0  0
   10.3750    0.5293    0.0000 C   0  0  2  0  0  0
   11.0825    0.1049    0.0000 O   0  0
   10.3890    1.3542    0.0000 C   0  0
   11.1107    1.7547    0.0000 O   0  0
   11.7254   -2.7939    0.0000 O   0  0
   12.4527   -2.4043    0.0000 C   0  0  1  0  0  0
   12.4791   -1.5794    0.0000 C   0  0  1  0  0  0
   13.2064   -1.1898    0.0000 C   0  0  2  0  0  0
   13.9072   -1.6252    0.0000 C   0  0  2  0  0  0
   14.6345   -1.2356    0.0000 O   0  0
   13.8807   -2.4501    0.0000 C   0  0  2  0  0  0
   13.1534   -2.8397    0.0000 O   0  0
   14.5816   -2.8854    0.0000 C   0  0
   14.5552   -3.7104    0.0000 O   0  0
    9.8994   -7.0242    0.0000 O   0  0
    9.8235   -7.8457    0.0000 C   0  0  1  0  0  0
   10.4972   -8.3226    0.0000 C   0  0  2  0  0  0
   11.2468   -7.9779    0.0000 O   0  0
   10.4213   -9.1442    0.0000 C   0  0  1  0  0  0
   11.0950   -9.6210    0.0000 O   0  0
    9.6718   -9.4889    0.0000 C   0  0  2  0  0  0
    9.5958  -10.3104    0.0000 O   0  0
    8.9980   -9.0120    0.0000 C   0  0  2  0  0  0
    9.0740   -8.1904    0.0000 O   0  0
    8.2484   -9.3567    0.0000 C   0  0
    7.5748   -8.8799    0.0000 O   0  0
    8.2253   -4.8102    0.0000 C   0  0
    8.2229   -5.6218    0.0000 C   0  0
    8.9227   -6.0274    0.0000 C   0  0  1  0  0  0
    8.9275   -4.4042    0.0000 C   0  0
    9.6274   -4.8144    0.0000 C   0  0  2  0  0  0
    9.6260   -5.6260    0.0000 C   0  0  2  0  0  0
   10.3263   -6.0307    0.0000 C   0  0
   11.0280   -5.6284    0.0000 C   0  0
   10.3291   -4.4075    0.0000 C   0  0  1  0  0  0
   11.0281   -4.8135    0.0000 C   0  0  2  0  0  0
   11.7287   -4.4114    0.0000 C   0  0
   11.7318   -3.6014    0.0000 C   0  0  2  0  0  0
   11.0282   -3.1953    0.0000 C   0  0
   10.3260   -3.5992    0.0000 C   0  0
   10.3196   -5.2108    0.0000 H   0  0
    9.6217   -4.0074    0.0000 C   0  0
    9.6144   -6.4329    0.0000 H   0  0
    8.5084   -6.7231    0.0000 C   0  0
    9.1226   -6.8075    0.0000 C   0  0
    8.5427   -7.3718    0.0000 O   0  0
   12.4233   -4.0065    0.0000 C   0  0
   11.7227   -5.2149    0.0000 C   0  0
   13.2031   -3.8007    0.0000 C   0  0
   11.7935   -0.3482    0.0000 H   0  0
    8.9092   -0.2614    0.0000 H   0  0
  9 10  1  0
  9 11  1  1
 11 12  1  0
 15 14  1  0
 15 16  1  0
 16 17  1  6
 16 18  1  0
 18  1  1  1
 18 19  1  0
 19 20  1  6
 19 21  1  0
 21 22  1  0
 36 35  1  1
 36 37  1  0
 37 38  1  6
 37 39  1  0
 39 40  1  1
 39 41  1  0
 41 42  1  6
 41 43  1  0
 43 44  1  0
 43 45  1  1
 45 46  1  0
 36 44  1  0
 47 48  1  0
 21 23  1  1
 23 24  1  0
 15 22  1  0
  2 10  1  0
 47 50  1  0
 48 49  1  0
 49 52  1  0
 51 50  1  0
 51 52  1  0
  2  1  1  0
  2  3  1  0
  3  4  1  6
 51 55  1  0
 52 53  1  0
 53 54  1  0
 56 54  1  6
 55 56  1  0
  3  5  1  0
  5  6  1  1
  5  7  1  0
  7  8  1  6
  7  9  1  0
 26 25  1  1
 55 60  1  0
 56 57  1  0
 57 58  1  0
 58 59  1  0
 59 60  1  0
 26 27  1  0
 55 61  1  1
 27 14  1  6
 51 62  1  6
 27 28  1  0
 52 63  1  1
 28 13  1  1
 49 64  1  1
 28 29  1  0
 49 65  1  0
 29 30  1  6
 65 66  2  0
 65 35  1  0
 58 25  1  6
 29 31  1  0
 58 67  1  0
 31 32  1  0
 56 68  1  0
 68 67  1  0
 31 33  1  1
 67 69  2  0
 33 34  1  0
 15 70  1  6
 26 32  1  0
  2 71  1  6
M  END
>  <MOLREGNO>
456365

>  <CHEMBLID>
CHEMBL430341

>  <SYNONYMS>
REBAUDIOSIDE A

>  <MAX_PHASE>
0

>  <MOLWEIGHT>
967.01

>  <ALOGP>
-3.48

>  <PSA>
374.13

>  <HBA>
23

>  <HBD>
14

>  <RO5>
3

>  <RTB>
13

>  <RO3>
N

>  <ACD_MOST_APKA>
12.52

>  <ACD_MOST_BPKA>


>  <ACD_LOGP>
-.94

>  <ACD_LOGD>
-.94

>  <AROMATIC_RINGS>
0

>  <HEAVY_ATOMS>
67

>  <QED_WEIGHTED>
.05

>  <HBA_LIPINSKI>
23

>  <HBD_LIPINSKI>
14

>  <NUM_LIPINSKI_RO5_VIOLATIONS>
2

>  <MW_MONOISOTOPIC>
966.4308

>  <MOLECULAR_SPECIES>
NEUTRAL

>  <FULL_MOLFORMULA>
C44H70O23

$$$$

  SciTegic11201309402D

 70 77  0  0  0  0            999 V2000
   -1.6110  -14.6307    0.0000 O   0  0
   -1.6384  -13.8022    0.0000 C   0  0  1  0  0  0
   -2.3715  -13.4131    0.0000 C   0  0  2  0  0  0
   -3.0771  -13.8527    0.0000 O   0  0
   -2.4031  -12.5824    0.0000 C   0  0  1  0  0  0
   -3.1362  -12.1934    0.0000 O   0  0
   -1.6975  -12.1429    0.0000 C   0  0  2  0  0  0
   -1.7291  -11.3121    0.0000 O   0  0
   -0.9643  -12.5319    0.0000 C   0  0  2  0  0  0
   -0.9368  -13.3604    0.0000 O   0  0
   -0.2628  -12.0903    0.0000 C   0  0
    0.4703  -12.4793    0.0000 O   0  0
   -0.1861  -17.1294    0.0000 O   0  0
   -0.1790  -16.3004    0.0000 C   0  0  1  0  0  0
   -0.8952  -15.8812    0.0000 C   0  0  2  0  0  0
   -1.6186  -16.2909    0.0000 O   0  0
   -0.8921  -15.0499    0.0000 C   0  0  2  0  0  0
   -0.1688  -14.6402    0.0000 C   0  0  2  0  0  0
   -0.1656  -13.8089    0.0000 O   0  0
    0.5475  -15.0594    0.0000 C   0  0  2  0  0  0
    0.5403  -15.8884    0.0000 O   0  0
    1.2601  -14.6387    0.0000 C   0  0
    1.3119  -13.8104    0.0000 O   0  0
   -0.1170  -18.7829    0.0000 O   0  0
    0.5806  -18.3426    0.0000 C   0  0  1  0  0  0
    0.5483  -17.5179    0.0000 C   0  0  2  0  0  0
    1.2459  -17.0775    0.0000 C   0  0  1  0  0  0
    1.2136  -16.2528    0.0000 O   0  0
    1.9760  -17.4618    0.0000 C   0  0  2  0  0  0
    2.6737  -17.0215    0.0000 O   0  0
    2.0084  -18.2866    0.0000 C   0  0  2  0  0  0
    1.3108  -18.7269    0.0000 O   0  0
    2.7385  -18.6708    0.0000 C   0  0
   -1.9444  -23.0130    0.0000 O   0  0
   -2.0203  -23.8346    0.0000 C   0  0  1  0  0  0
   -1.3466  -24.3114    0.0000 C   0  0  2  0  0  0
   -0.5971  -23.9666    0.0000 O   0  0
   -1.4226  -25.1329    0.0000 C   0  0  1  0  0  0
   -0.7489  -25.6097    0.0000 O   0  0
   -2.1721  -25.4777    0.0000 C   0  0  2  0  0  0
   -2.2480  -26.2992    0.0000 O   0  0
   -2.8458  -25.0007    0.0000 C   0  0  2  0  0  0
   -2.7699  -24.1792    0.0000 O   0  0
   -3.5954  -25.3455    0.0000 C   0  0
   -4.2690  -24.8687    0.0000 O   0  0
   -3.6186  -20.7990    0.0000 C   0  0
   -3.6210  -21.6106    0.0000 C   0  0
   -2.9212  -22.0162    0.0000 C   0  0  1  0  0  0
   -2.9163  -20.3931    0.0000 C   0  0
   -2.2164  -20.8032    0.0000 C   0  0  2  0  0  0
   -2.2179  -21.6148    0.0000 C   0  0  2  0  0  0
   -1.5175  -22.0195    0.0000 C   0  0
   -0.8159  -21.6171    0.0000 C   0  0
   -1.5148  -20.3963    0.0000 C   0  0  1  0  0  0
   -0.8158  -20.8023    0.0000 C   0  0  2  0  0  0
   -0.1152  -20.4002    0.0000 C   0  0
   -0.1120  -19.5903    0.0000 C   0  0  2  0  0  0
   -0.8157  -19.1842    0.0000 C   0  0
   -1.5179  -19.5881    0.0000 C   0  0
   -1.5243  -21.1996    0.0000 H   0  0
   -2.2222  -19.9961    0.0000 C   0  0
   -2.2294  -22.4218    0.0000 H   0  0
   -3.3354  -22.7120    0.0000 C   0  0
   -2.7212  -22.7963    0.0000 C   0  0
   -3.3012  -23.3605    0.0000 O   0  0
    0.5794  -19.9954    0.0000 C   0  0
   -0.1212  -21.2038    0.0000 C   0  0
    1.3592  -19.7896    0.0000 C   0  0
    0.5273  -16.7087    0.0000 H   0  0
   -0.9308  -14.2144    0.0000 H   0  0
  9 10  1  0
  9 11  1  1
 14 13  1  0
 14 15  1  0
 15 16  1  6
 15 17  1  0
 17  1  1  1
 17 18  1  0
 18 19  1  6
 18 20  1  0
 20 21  1  0
 35 34  1  1
 35 36  1  0
 36 37  1  6
 36 38  1  0
 38 39  1  1
 38 40  1  0
 40 41  1  6
 40 42  1  0
 42 43  1  0
 42 44  1  1
 44 45  1  0
 35 43  1  0
 46 47  1  0
 20 22  1  1
 22 23  1  0
 14 21  1  0
 11 12  1  0
 46 49  1  0
 47 48  1  0
 48 51  1  0
 50 49  1  0
 50 51  1  0
  2 10  1  0
  2  1  1  0
  2  3  1  0
 50 54  1  0
 51 52  1  0
 52 53  1  0
 55 53  1  6
 54 55  1  0
  3  4  1  6
  3  5  1  0
  5  6  1  1
  5  7  1  0
  7  8  1  6
 25 24  1  1
 54 59  1  0
 55 56  1  0
 56 57  1  0
 57 58  1  0
 58 59  1  0
 25 26  1  0
 54 60  1  1
 26 13  1  1
 50 61  1  6
 26 27  1  0
 51 62  1  1
 27 28  1  1
 48 63  1  1
 27 29  1  0
 48 64  1  0
 29 30  1  6
 64 65  2  0
 64 34  1  0
 57 24  1  6
 29 31  1  0
 57 66  1  0
 31 32  1  0
 55 67  1  0
 67 66  1  0
 31 33  1  1
 66 68  2  0
 25 32  1  0
 14 69  1  6
  7  9  1  0
  2 70  1  6
M  END
>  <MOLREGNO>
456366

>  <CHEMBLID>
CHEMBL501040

>  <SYNONYMS>
Rebaudioside C

>  <MAX_PHASE>
0

>  <MOLWEIGHT>
951.01

>  <ALOGP>
-2.59

>  <PSA>
353.9

>  <HBA>
22

>  <HBD>
13

>  <RO5>
3

>  <RTB>
12

>  <RO3>
N

>  <ACD_MOST_APKA>
12.52

>  <ACD_MOST_BPKA>


>  <ACD_LOGP>
-.17

>  <ACD_LOGD>
-.17

>  <AROMATIC_RINGS>
0

>  <HEAVY_ATOMS>
66

>  <QED_WEIGHTED>
.05

>  <HBA_LIPINSKI>
22

>  <HBD_LIPINSKI>
13

>  <NUM_LIPINSKI_RO5_VIOLATIONS>
2

>  <MW_MONOISOTOPIC>
950.4359

>  <MOLECULAR_SPECIES>
NEUTRAL

>  <FULL_MOLFORMULA>
C44H70O22

$$$$

  SciTegic09261414532D

 84 92  0  0  0  0            999 V2000
   30.7644   -8.6672    0.0000 C   0  0
   30.7644   -9.4844    0.0000 C   0  0
   31.4696   -9.8888    0.0000 C   0  0  1  0  0  0
   31.4696   -8.2545    0.0000 C   0  0
   32.1749   -8.6672    0.0000 C   0  0  2  0  0  0
   32.1714   -9.4844    0.0000 C   0  0  2  0  0  0
   32.8735   -9.8937    0.0000 C   0  0
   33.5835   -9.4904    0.0000 C   0  0
   33.5860   -8.6704    0.0000 C   0  0  1  0  0  0
   32.8805   -8.2593    0.0000 C   0  0  1  0  0  0
   32.7584   -7.4462    0.0000 C   0  0
   34.3518   -8.3712    0.0000 C   0  0
   33.3135   -6.8440    0.0000 C   0  0
   34.5943   -7.5861    0.0000 C   0  0
   34.1302   -6.9085    0.0000 C   0  0  1  0  0  0
   35.4023   -7.4636    0.0000 C   0  0
   33.5791   -7.8500    0.0000 C   0  0
   34.5393   -6.2017    0.0000 O   0  0
   32.8734   -9.0758    0.0000 H   0  0
   32.1676   -7.8500    0.0000 C   0  0
   32.1635  -10.2974    0.0000 H   0  0
   31.6765  -10.6771    0.0000 C   0  0
   30.8841  -10.4667    0.0000 C   0  0
   30.0961  -10.2499    0.0000 O   0  0
   31.0903  -11.2574    0.0000 O   0  0
   29.5144  -10.8238    0.0000 C   0  0  2  0  0  0
   28.7275  -10.6093    0.0000 O   0  0
   28.1470  -11.1793    0.0000 C   0  0  1  0  0  0
   28.3492  -11.9715    0.0000 C   0  0  2  0  0  0
   29.1375  -12.1904    0.0000 C   0  0  1  0  0  0
   29.7236  -11.6172    0.0000 C   0  0  1  0  0  0
   29.3410  -12.9818    0.0000 O   0  0
   27.3599  -10.9596    0.0000 C   0  0
   27.1566  -10.1681    0.0000 O   0  0
   30.5113  -11.8347    0.0000 O   0  0
   27.7653  -12.5432    0.0000 O   0  0
   34.5561   -5.3820    0.0000 C   0  0  2  0  0  0
   35.2746   -4.9839    0.0000 O   0  0
   35.2889   -4.1704    0.0000 C   0  0  1  0  0  0
   34.5894   -3.7473    0.0000 C   0  0  2  0  0  0
   33.8738   -4.1438    0.0000 C   0  0  1  0  0  0
   33.8577   -4.9635    0.0000 C   0  0  1  0  0  0
   35.2628   -5.7848    0.0000 H   0  0
   33.1435   -5.3587    0.0000 O   0  0
   34.6049   -2.9303    0.0000 O   0  0
   33.1738   -3.7221    0.0000 O   0  0
   36.0043   -3.7754    0.0000 C   0  0
   36.7041   -4.1973    0.0000 O   0  0
   32.3336   -5.2499    0.0000 C   0  0  2  0  0  0
   32.0272   -4.4876    0.0000 O   0  0
   31.2211   -4.3773    0.0000 C   0  0  1  0  0  0
   30.7184   -5.0220    0.0000 C   0  0  2  0  0  0
   31.0276   -5.7794    0.0000 C   0  0  1  0  0  0
   31.8396   -5.8922    0.0000 C   0  0  1  0  0  0
   32.1493   -6.6484    0.0000 O   0  0
   29.9089   -4.9101    0.0000 O   0  0
   30.5262   -6.4247    0.0000 O   0  0
   30.9133   -3.6203    0.0000 C   0  0
   30.1038   -3.5084    0.0000 O   0  0
   33.1890   -2.9051    0.0000 C   0  0  2  0  0  0
   33.9075   -2.5127    0.0000 O   0  0
   33.9246   -1.6992    0.0000 C   0  0  1  0  0  0
   33.2265   -1.2769    0.0000 C   0  0  2  0  0  0
   32.5095   -1.6678    0.0000 C   0  0  1  0  0  0
   32.4907   -2.4874    0.0000 C   0  0  1  0  0  0
   32.7372   -4.5400    0.0000 H   0  0
   33.8928   -3.3100    0.0000 H   0  0
   31.7752   -2.8823    0.0000 O   0  0
   33.2449   -0.4599    0.0000 O   0  0
   31.8117   -1.2425    0.0000 O   0  0
   34.6406   -1.3054    0.0000 C   0  0
   35.3397   -1.7286    0.0000 O   0  0
   30.7168  -12.6256    0.0000 C   0  0  2  0  0  0
   30.1313  -13.1964    0.0000 O   0  0
   30.3341  -13.9844    0.0000 C   0  0  1  0  0  0
   31.1210  -14.2060    0.0000 C   0  0  2  0  0  0
   31.7053  -13.6333    0.0000 C   0  0  1  0  0  0
   31.5026  -12.8390    0.0000 C   0  0  1  0  0  0
   31.1193  -11.9153    0.0000 H   0  0
   32.0849  -12.2656    0.0000 O   0  0
   31.3235  -14.9977    0.0000 O   0  0
   29.7497  -14.5556    0.0000 C   0  0
   32.4922  -13.8535    0.0000 O   0  0
   28.9628  -14.3352    0.0000 O   0  0
  1  2  1  0
  1  4  1  0
  2  3  1  0
  3  6  1  0
  5  4  1  0
  5  6  1  0
  5 10  1  0
  6  7  1  0
  7  8  1  0
  8  9  1  0
  9 10  1  0
 10 11  1  0
  9 12  1  0
 11 13  1  0
 12 14  1  0
 13 15  1  0
 14 15  1  0
 14 16  2  0
  9 17  1  6
 15 17  1  0
 15 18  1  6
 10 19  1  1
  5 20  1  6
  6 21  1  1
  3 22  1  1
  3 23  1  0
 23 24  1  0
 23 25  2  0
 26 24  1  1
 26 27  1  0
 26 31  1  0
 27 28  1  0
 28 29  1  0
 29 30  1  0
 30 31  1  0
 30 32  1  1
 28 33  1  1
 33 34  1  0
 31 35  1  6
 29 36  1  6
 18 37  1  0
 37 38  1  0
 37 42  1  0
 38 39  1  0
 39 40  1  0
 40 41  1  0
 41 42  1  0
 37 43  1  6
 42 44  1  6
 40 45  1  6
 41 46  1  1
 39 47  1  1
 47 48  1  0
 44 49  1  0
 49 50  1  0
 49 54  1  0
 50 51  1  0
 51 52  1  0
 52 53  1  0
 53 54  1  0
 54 55  1  6
 52 56  1  6
 53 57  1  1
 51 58  1  1
 58 59  1  0
 46 60  1  0
 60 61  1  0
 60 65  1  0
 61 62  1  0
 62 63  1  0
 63 64  1  0
 64 65  1  0
 49 66  1  6
 60 67  1  6
 65 68  1  6
 63 69  1  6
 64 70  1  1
 62 71  1  1
 71 72  1  0
 35 73  1  0
 73 74  1  0
 73 78  1  0
 74 75  1  0
 75 76  1  0
 76 77  1  0
 77 78  1  0
 73 79  1  6
 78 80  1  6
 76 81  1  6
 75 82  1  1
 77 83  1  1
 82 84  1  0
M  END
>  <MOLREGNO>
1757267

>  <CHEMBLID>
CHEMBL3286747

>  <SYNONYMS>


>  <MAX_PHASE>
0

>  <MOLWEIGHT>
1129.15

>  <ALOGP>


>  <PSA>


>  <HBA>


>  <HBD>


>  <RO5>


>  <RTB>


>  <RO3>


>  <ACD_MOST_APKA>


>  <ACD_MOST_BPKA>


>  <ACD_LOGP>


>  <ACD_LOGD>


>  <AROMATIC_RINGS>


>  <HEAVY_ATOMS>


>  <QED_WEIGHTED>


>  <HBA_LIPINSKI>


>  <HBD_LIPINSKI>


>  <NUM_LIPINSKI_RO5_VIOLATIONS>


>  <MW_MONOISOTOPIC>
1128.4836

>  <MOLECULAR_SPECIES>


>  <FULL_MOLFORMULA>
C50H80O28

$$$$

  SciTegic12231509382D

 23 26  0  0  0  0            999 V2000
    5.7207   -1.4843    0.0000 C   0  0
    5.7191   -2.3153    0.0000 C   0  0
    6.4354   -1.0723    0.0000 C   0  0
    7.1512   -1.4829    0.0000 C   0  0
    8.5900   -2.3174    0.0000 N   0  0
    8.5918   -1.4819    0.0000 C   0  0
    7.8711   -1.0632    0.0000 C   0  0
    7.1493   -2.3143    0.0000 C   0  0
    6.4363   -2.7293    0.0000 C   0  0
    7.8596   -3.5509    0.0000 C   0  0
    7.8623   -2.7227    0.0000 C   0  0  1  0  0  0
    7.1465   -3.9618    0.0000 C   0  0
    6.4381   -3.5500    0.0000 C   0  0
    5.7276   -3.9571    0.0000 C   0  0
    5.7240   -4.7756    0.0000 C   0  0
    6.4396   -5.1885    0.0000 C   0  0
    7.1454   -4.7780    0.0000 C   0  0
    5.0034   -2.7252    0.0000 O   0  0
    4.2900   -2.3116    0.0000 C   0  0
    5.0061   -1.0729    0.0000 O   0  0
    4.2876   -1.4848    0.0000 C   0  0
    9.3036   -2.7376    0.0000 C   0  0
    8.5770   -3.1330    0.0000 H   0  0
  9 13  1  0
 12 10  1  0
 10 11  1  0
  4  3  2  0
 12 13  2  0
  4  7  1  0
 13 14  1  0
 11  5  1  0
 14 15  2  0
  5  6  1  0
 15 16  1  0
  6  7  1  0
 16 17  2  0
 17 12  1  0
  8  9  2  0
  2 18  1  0
  3  1  1  0
 18 19  1  0
  4  8  1  0
  1 20  1  0
  1  2  2  0
 20 21  1  0
  2  9  1  0
  5 22  1  0
  8 11  1  0
 11 23  1  1
M  END
>  <MOLREGNO>
462581

>  <CHEMBLID>
CHEMBL464529

>  <SYNONYMS>
Nuciferine | nuciferine HCl

>  <MAX_PHASE>
0

>  <MOLWEIGHT>
295.38

>  <ALOGP>
3.57

>  <PSA>
21.7

>  <HBA>
3

>  <HBD>
0

>  <RO5>
0

>  <RTB>
2

>  <RO3>
N

>  <ACD_MOST_APKA>
3.54

>  <ACD_MOST_BPKA>
.77

>  <ACD_LOGP>
3.2

>  <ACD_LOGD>
1.2

>  <AROMATIC_RINGS>
2

>  <HEAVY_ATOMS>
22

>  <QED_WEIGHTED>
.85

>  <HBA_LIPINSKI>
3

>  <HBD_LIPINSKI>
0

>  <NUM_LIPINSKI_RO5_VIOLATIONS>
0

>  <MW_MONOISOTOPIC>
295.1572

>  <MOLECULAR_SPECIES>
ACID

>  <FULL_MOLFORMULA>
C19H21NO2

$$$$

  CDK    10/7/09,10:42

 46 51  0  0  0  0  0  0  0  0999 V2000
    6.2088    0.8205    0.0000 C   0  0  0  0  0  0  0  0  0  0  0  0
    6.2075   -0.0071    0.0000 C   0  0  0  0  0  0  0  0  0  0  0  0
    6.9205   -0.4201    0.0000 C   0  0  0  0  0  0  0  0  0  0  0  0
    6.9185    1.2332    0.0000 C   0  0  0  0  0  0  0  0  0  0  0  0
    7.6367    0.8244    0.0000 C   0  0  0  0  0  0  0  0  0  0  0  0
    7.6359   -0.0046    0.0000 C   0  0  0  0  0  0  0  0  0  0  0  0
    8.3494   -0.4176    0.0000 C   0  0  0  0  0  0  0  0  0  0  0  0
    9.0684   -0.0062    0.0000 N   0  0  0  0  0  0  0  0  0  0  0  0
    9.0693    0.8229    0.0000 C   0  0  0  0  0  0  0  0  0  0  0  0
    8.3512    1.2405    0.0000 C   0  0  0  0  0  0  0  0  0  0  0  0
    5.4925   -0.4187    0.0000 O   0  0  0  0  0  0  0  0  0  0  0  0
    5.4940    1.2323    0.0000 O   0  0  0  0  0  0  0  0  0  0  0  0
    5.4933    2.0573    0.0000 C   0  0  0  0  0  0  0  0  0  0  0  0
    5.4913   -1.2437    0.0000 C   0  0  0  0  0  0  0  0  0  0  0  0
    4.7749   -1.6521    0.0000 C   0  0  0  0  0  0  0  0  0  0  0  0
    4.7733   -2.4763    0.0000 C   0  0  0  0  0  0  0  0  0  0  0  0
    5.4878   -2.8907    0.0000 C   0  0  0  0  0  0  0  0  0  0  0  0
    6.2052   -2.4748    0.0000 C   0  0  0  0  0  0  0  0  0  0  0  0
    6.2032   -1.6520    0.0000 C   0  0  0  0  0  0  0  0  0  0  0  0
    4.0620   -1.2371    0.0000 O   0  0  0  0  0  0  0  0  0  0  0  0
    6.9205   -2.8858    0.0000 C   0  0  0  0  0  0  0  0  0  0  0  0
    6.9223   -3.7108    0.0000 C   0  0  0  0  0  0  0  0  0  0  0  0
    6.2086   -4.1209    0.0000 N   0  0  0  0  0  0  0  0  0  0  0  0
    6.2084   -4.9423    0.0000 C   0  0  0  0  0  0  0  0  0  0  0  0
    6.9218   -5.3571    0.0000 C   0  0  0  0  0  0  0  0  0  0  0  0
    7.6393   -4.1167    0.0000 C   0  0  0  0  0  0  0  0  0  0  0  0
    7.6333   -4.9435    0.0000 C   0  0  0  0  0  0  0  0  0  0  0  0
    8.3452   -5.3601    0.0000 C   0  0  0  0  0  0  0  0  0  0  0  0
    9.0634   -4.9511    0.0000 C   0  0  0  0  0  0  0  0  0  0  0  0
    9.0653   -4.1213    0.0000 C   0  0  0  0  0  0  0  0  0  0  0  0
    8.3528   -3.7084    0.0000 C   0  0  0  0  0  0  0  0  0  0  0  0
    5.4947   -3.7075    0.0000 C   0  0  0  0  0  0  0  0  0  0  0  0
    9.7806   -3.7102    0.0000 O   0  0  0  0  0  0  0  0  0  0  0  0
   10.4943   -4.1240    0.0000 C   0  0  0  0  0  0  0  0  0  0  0  0
    9.7762   -5.3666    0.0000 O   0  0  0  0  0  0  0  0  0  0  0  0
   10.4924   -4.9570    0.0000 C   0  0  0  0  0  0  0  0  0  0  0  0
    9.7818   -0.4203    0.0000 C   0  0  0  0  0  0  0  0  0  0  0  0
    8.3473   -1.2426    0.0000 C   0  0  0  0  0  0  0  0  0  0  0  0
    9.0608   -1.6568    0.0000 C   0  0  0  0  0  0  0  0  0  0  0  0
    9.0564   -2.4808    0.0000 C   0  0  0  0  0  0  0  0  0  0  0  0
    9.7690   -2.8950    0.0000 C   0  0  0  0  0  0  0  0  0  0  0  0
   10.4855   -2.4842    0.0000 C   0  0  0  0  0  0  0  0  0  0  0  0
   10.4848   -1.6549    0.0000 C   0  0  0  0  0  0  0  0  0  0  0  0
    9.7716   -1.2445    0.0000 C   0  0  0  0  0  0  0  0  0  0  0  0
   11.1995   -2.8975    0.0000 O   0  0  0  0  0  0  0  0  0  0  0  0
   11.9144   -2.4858    0.0000 C   0  0  0  0  0  0  0  0  0  0  0  0
 22 21  1  6  0  0  0 
 22 23  1  0  0  0  0 
  5  6  1  0  0  0  0 
  2 11  1  0  0  0  0 
 22 26  1  0  0  0  0 
 23 24  1  0  0  0  0 
 24 25  1  0  0  0  0 
 25 27  1  0  0  0  0 
  1 12  1  0  0  0  0 
  2  3  1  0  0  0  0 
 26 27  2  0  0  0  0 
 12 13  1  0  0  0  0 
 27 28  1  0  0  0  0 
  3  6  2  0  0  0  0 
 28 29  2  0  0  0  0 
 11 14  1  0  0  0  0 
 29 30  1  0  0  0  0 
  1  2  2  0  0  0  0 
 30 31  2  0  0  0  0 
 31 26  1  0  0  0  0 
 14 15  2  0  0  0  0 
 23 32  1  0  0  0  0 
  5  4  2  0  0  0  0 
 30 33  1  0  0  0  0 
 15 16  1  0  0  0  0 
 33 34  1  0  0  0  0 
  4  1  1  0  0  0  0 
 29 35  1  0  0  0  0 
 16 17  2  0  0  0  0 
 35 36  1  0  0  0  0 
  5 10  1  0  0  0  0 
  8 37  1  0  0  0  0 
 17 18  1  0  0  0  0 
  7 38  1  6  0  0  0 
  6  7  1  0  0  0  0 
 38 39  1  0  0  0  0 
 18 19  2  0  0  0  0 
 39 40  2  0  0  0  0 
 19 14  1  0  0  0  0 
 40 41  1  0  0  0  0 
  7  8  1  0  0  0  0 
 41 42  2  0  0  0  0 
 15 20  1  0  0  0  0 
 42 43  1  0  0  0  0 
  8  9  1  0  0  0  0 
 43 44  2  0  0  0  0 
 44 39  1  0  0  0  0 
 18 21  1  0  0  0  0 
 42 45  1  0  0  0  0 
  9 10  1  0  0  0  0 
 45 46  1  0  0  0  0 
M  END
>  <MOLREGNO>
523230

>  <CHEMBLID>
CHEMBL455560

>  <SYNONYMS>
Neferine

>  <MAX_PHASE>
0

>  <MOLWEIGHT>
624.77

>  <ALOGP>
7.25

>  <PSA>
72.86

>  <HBA>
8

>  <HBD>
1

>  <RO5>
2

>  <RTB>
10

>  <RO3>
N

>  <ACD_MOST_APKA>
9.28

>  <ACD_MOST_BPKA>
7.8

>  <ACD_LOGP>
4.58

>  <ACD_LOGD>
3.5

>  <AROMATIC_RINGS>
4

>  <HEAVY_ATOMS>
46

>  <QED_WEIGHTED>
.2

>  <HBA_LIPINSKI>
8

>  <HBD_LIPINSKI>
1

>  <NUM_LIPINSKI_RO5_VIOLATIONS>
1

>  <MW_MONOISOTOPIC>
624.3199

>  <MOLECULAR_SPECIES>
NEUTRAL

>  <FULL_MOLFORMULA>
C38H44N2O6

$$$$

  CDK    10/7/09,10:42

 45 50  0  0  0  0  0  0  0  0999 V2000
   -3.1319    1.1687    0.0000 C   0  0  0  0  0  0  0  0  0  0  0  0
   -3.1331    0.3412    0.0000 C   0  0  0  0  0  0  0  0  0  0  0  0
   -2.4202   -0.0717    0.0000 C   0  0  0  0  0  0  0  0  0  0  0  0
   -2.4222    1.5815    0.0000 C   0  0  0  0  0  0  0  0  0  0  0  0
   -1.7041    1.1728    0.0000 C   0  0  0  0  0  0  0  0  0  0  0  0
   -1.7003    0.3391    0.0000 C   0  0  0  0  0  0  0  0  0  0  0  0
   -0.9806   -0.0722    0.0000 C   0  0  0  0  0  0  0  0  0  0  0  0
   -0.2599    0.3455    0.0000 N   0  0  0  0  0  0  0  0  0  0  0  0
   -0.2636    1.1792    0.0000 C   0  0  0  0  0  0  0  0  0  0  0  0
   -0.9880    1.5951    0.0000 C   0  0  0  0  0  0  0  0  0  0  0  0
   -3.8467    1.5806    0.0000 O   0  0  0  0  0  0  0  0  0  0  0  0
   -3.8473    2.4056    0.0000 C   0  0  0  0  0  0  0  0  0  0  0  0
   -3.8482   -0.0703    0.0000 O   0  0  0  0  0  0  0  0  0  0  0  0
   -3.8494   -0.8953    0.0000 C   0  0  0  0  0  0  0  0  0  0  0  0
    0.4558   -0.0648    0.0000 C   0  0  0  0  0  0  0  0  0  0  0  0
   -0.9781   -0.8971    0.0000 C   0  0  0  0  0  0  0  0  0  0  0  0
   -0.2623   -1.3074    0.0000 C   0  0  0  0  0  0  0  0  0  0  0  0
   -0.2616   -2.1324    0.0000 C   0  0  0  0  0  0  0  0  0  0  0  0
    0.4533   -2.5426    0.0000 C   0  0  0  0  0  0  0  0  0  0  0  0
    1.1674   -2.1279    0.0000 C   0  0  0  0  0  0  0  0  0  0  0  0
    1.1622   -1.2986    0.0000 C   0  0  0  0  0  0  0  0  0  0  0  0
    0.4468   -0.8922    0.0000 C   0  0  0  0  0  0  0  0  0  0  0  0
    1.8837   -2.5372    0.0000 O   0  0  0  0  0  0  0  0  0  0  0  0
    2.5963   -2.1216    0.0000 C   0  0  0  0  0  0  0  0  0  0  0  0
   -4.5657   -1.3038    0.0000 C   0  0  0  0  0  0  0  0  0  0  0  0
   -4.5673   -2.1280    0.0000 C   0  0  0  0  0  0  0  0  0  0  0  0
   -3.8529   -2.5423    0.0000 C   0  0  0  0  0  0  0  0  0  0  0  0
   -3.1354   -2.1264    0.0000 C   0  0  0  0  0  0  0  0  0  0  0  0
   -3.1375   -1.3036    0.0000 C   0  0  0  0  0  0  0  0  0  0  0  0
   -5.2787   -0.8887    0.0000 O   0  0  0  0  0  0  0  0  0  0  0  0
   -2.4201   -2.5374    0.0000 C   0  0  0  0  0  0  0  0  0  0  0  0
   -2.4185   -3.3624    0.0000 C   0  0  0  0  0  0  0  0  0  0  0  0
   -3.1298   -3.7764    0.0000 N   0  0  0  0  0  0  0  0  0  0  0  0
   -3.1301   -4.5977    0.0000 C   0  0  0  0  0  0  0  0  0  0  0  0
   -2.4166   -5.0126    0.0000 C   0  0  0  0  0  0  0  0  0  0  0  0
   -1.6992   -3.7723    0.0000 C   0  0  0  0  0  0  0  0  0  0  0  0
   -1.7031   -4.5995    0.0000 C   0  0  0  0  0  0  0  0  0  0  0  0
   -0.9896   -5.0146    0.0000 C   0  0  0  0  0  0  0  0  0  0  0  0
   -0.2719   -4.6036    0.0000 C   0  0  0  0  0  0  0  0  0  0  0  0
   -0.2721   -3.7732    0.0000 C   0  0  0  0  0  0  0  0  0  0  0  0
   -0.9862   -3.3618    0.0000 C   0  0  0  0  0  0  0  0  0  0  0  0
   -3.8449   -3.3650    0.0000 C   0  0  0  0  0  0  0  0  0  0  0  0
    0.4420   -3.3603    0.0000 O   0  0  0  0  0  0  0  0  0  0  0  0
    0.4419   -5.0173    0.0000 O   0  0  0  0  0  0  0  0  0  0  0  0
    0.4405   -5.8422    0.0000 C   0  0  0  0  0  0  0  0  0  0  0  0
 21 22  2  0  0  0  0 
 22 17  1  0  0  0  0 
  5  6  1  0  0  0  0 
 20 23  1  0  0  0  0 
  1 11  1  0  0  0  0 
 23 24  1  0  0  0  0 
 14 25  2  0  0  0  0 
 11 12  1  0  0  0  0 
 25 26  1  0  0  0  0 
  2  3  1  0  0  0  0 
 26 27  2  0  0  0  0 
  2 13  1  0  0  0  0 
 27 28  1  0  0  0  0 
  3  6  2  0  0  0  0 
 28 29  2  0  0  0  0 
 29 14  1  0  0  0  0 
 13 14  1  0  0  0  0 
 25 30  1  0  0  0  0 
  1  2  2  0  0  0  0 
 28 31  1  0  0  0  0 
  8 15  1  0  0  0  0 
 32 31  1  6  0  0  0 
 32 33  1  0  0  0  0 
  5  4  2  0  0  0  0 
  7 16  1  6  0  0  0 
  4  1  1  0  0  0  0 
 32 36  1  0  0  0  0 
 33 34  1  0  0  0  0 
 34 35  1  0  0  0  0 
 35 37  1  0  0  0  0 
 16 17  1  0  0  0  0 
  5 10  1  0  0  0  0 
 36 37  2  0  0  0  0 
 17 18  2  0  0  0  0 
 37 38  1  0  0  0  0 
  6  7  1  0  0  0  0 
 38 39  2  0  0  0  0 
 18 19  1  0  0  0  0 
 39 40  1  0  0  0  0 
  7  8  1  0  0  0  0 
 40 41  2  0  0  0  0 
 41 36  1  0  0  0  0 
 19 20  2  0  0  0  0 
 33 42  1  0  0  0  0 
  8  9  1  0  0  0  0 
 40 43  1  0  0  0  0 
 20 21  1  0  0  0  0 
 39 44  1  0  0  0  0 
  9 10  1  0  0  0  0 
 44 45  1  0  0  0  0 
M  END
>  <MOLREGNO>
523229

>  <CHEMBLID>
CHEMBL502370

>  <SYNONYMS>
Isoliensinine

>  <MAX_PHASE>
0

>  <MOLWEIGHT>
610.74

>  <ALOGP>
7.02

>  <PSA>
83.86

>  <HBA>
8

>  <HBD>
2

>  <RO5>
2

>  <RTB>
9

>  <RO3>
N

>  <ACD_MOST_APKA>
9.28

>  <ACD_MOST_BPKA>
7.94

>  <ACD_LOGP>
4.06

>  <ACD_LOGD>
2.93

>  <AROMATIC_RINGS>
4

>  <HEAVY_ATOMS>
45

>  <QED_WEIGHTED>
.21

>  <HBA_LIPINSKI>
8

>  <HBD_LIPINSKI>
2

>  <NUM_LIPINSKI_RO5_VIOLATIONS>
1

>  <MW_MONOISOTOPIC>
610.3043

>  <MOLECULAR_SPECIES>
NEUTRAL

>  <FULL_MOLFORMULA>
C37H42N2O6

$$$$

  SciTegic11201309402D

 32 37  0  0  0  0            999 V2000
   -1.8000   -0.7417    0.0000 C   0  0  1  0  0  0
   -1.1333   -0.2625    0.0000 C   0  0  1  0  0  0
   -0.4625   -0.7375    0.0000 C   0  0  1  0  0  0
   -2.4708   -0.2542    0.0000 C   0  0  1  0  0  0
   -0.7125   -1.5292    0.0000 C   0  0  2  0  0  0
   -1.1083   -1.0667    0.0000 C   0  0
   -1.5458   -1.5292    0.0000 O   0  0
    0.2000   -0.2542    0.0000 C   0  0  1  0  0  0
   -3.2958   -0.2542    0.0000 C   0  0  1  0  0  0
   -0.0458   -2.0125    0.0000 O   0  0
   -2.2083    0.5250    0.0000 C   0  0  1  0  0  0
   -0.8833    0.5208    0.0000 C   0  0  2  0  0  0
   -3.5458    0.5250    0.0000 C   0  0
    0.6167   -1.5292    0.0000 C   0  0
   -0.4750   -0.1875    0.0000 O   0  0
   -2.8833    1.0125    0.0000 O   0  0
    0.3625   -0.7417    0.0000 C   0  0  2  0  0  0
   -1.3833    0.5208    0.0000 C   0  0
   -0.0625    0.5250    0.0000 C   0  0
    0.7792    0.3375    0.0000 C   0  0
   -1.1083   -2.0125    0.0000 O   0  0
   -4.3333    0.7833    0.0000 O   0  0
    1.4042   -1.7750    0.0000 O   0  0
   -2.6875   -1.0542    0.0000 O   0  0
    1.5417   -0.7000    0.0000 O   0  0
   -3.7833   -0.9292    0.0000 C   0  0
    1.3625    0.9250    0.0000 C   0  0
    0.1917    0.9208    0.0000 C   0  0
    1.3667   -0.2417    0.0000 C   0  0
   -0.7208   -2.3542    0.0000 H   0  0
   -2.2208    1.3583    0.0000 H   0  0
   -0.8875    1.3500    0.0000 H   0  0
  2  1  1  0
  3  2  1  1
  4  1  1  0
  5  7  1  0
  6  1  1  0
  1  7  1  1
  8  3  1  0
  9  4  1  0
 10  5  1  0
 11  4  1  0
 12  2  1  0
 13  9  1  0
 14 10  1  0
 15  6  1  0
 16 11  1  0
 17  3  1  0
  2 18  1  1
 19 12  1  0
  8 20  1  1
 21  6  2  0
 22 13  2  0
 23 14  2  0
  4 24  1  6
 17 25  1  1
  9 26  1  6
 27 20  1  0
 28 20  1  0
 29 20  1  0
  5 30  1  6
 11 31  1  6
 12 32  1  6
  3  5  1  0
 12 15  1  0
 18 11  1  0
 16 13  1  0
  8 19  1  0
 14 17  1  0
M  END
>  <MOLREGNO>
464397

>  <CHEMBLID>
CHEMBL465161

>  <SYNONYMS>
GINKGOLIDE A

>  <MAX_PHASE>
0

>  <MOLWEIGHT>
408.4

>  <ALOGP>
-.02

>  <PSA>
128.59

>  <HBA>
9

>  <HBD>
2

>  <RO5>
0

>  <RTB>
1

>  <RO3>
N

>  <ACD_MOST_APKA>
11.45

>  <ACD_MOST_BPKA>


>  <ACD_LOGP>
-.04

>  <ACD_LOGD>
-.04

>  <AROMATIC_RINGS>
0

>  <HEAVY_ATOMS>
29

>  <QED_WEIGHTED>
.58

>  <HBA_LIPINSKI>
9

>  <HBD_LIPINSKI>
2

>  <NUM_LIPINSKI_RO5_VIOLATIONS>
0

>  <MW_MONOISOTOPIC>
408.142

>  <MOLECULAR_SPECIES>
NEUTRAL

>  <FULL_MOLFORMULA>
C20H24O9

$$$$

  SciTegic11201309402D

 33 38  0  0  0  0            999 V2000
    1.5750   -3.8792    0.0000 C   0  0  1  0  0  0
    1.8333   -4.6583    0.0000 C   0  0  2  0  0  0
    2.6583   -4.6583    0.0000 C   0  0  1  0  0  0
    0.7458   -3.8833    0.0000 C   0  0  2  0  0  0
    0.5042   -4.6625    0.0000 C   0  0  2  0  0  0
    2.9125   -3.8750    0.0000 C   0  0  2  0  0  0
    2.1542   -4.2167    0.0000 C   0  0
    2.2458   -3.3875    0.0000 O   0  0
    1.1667   -5.1458    0.0000 C   0  0  2  0  0  0
    2.9125   -5.4542    0.0000 C   0  0  1  0  0  0
   -0.3167   -4.6667    0.0000 O   0  0
    0.0833   -3.4042    0.0000 C   0  0  1  0  0  0
    1.5750   -5.4542    0.0000 C   0  0  2  0  0  0
    3.7375   -3.8792    0.0000 O   0  0
   -0.5833   -3.8917    0.0000 C   0  0
    3.9958   -4.6625    0.0000 C   0  0
    2.2208   -5.2917    0.0000 O   0  0
    3.3208   -5.1500    0.0000 C   0  0  2  0  0  0
    2.2458   -5.9292    0.0000 C   0  0
    2.9042   -6.2750    0.0000 C   0  0
    2.5333   -3.9042    0.0000 O   0  0
   -1.3667   -3.6458    0.0000 O   0  0
    4.7792   -4.9250    0.0000 O   0  0
    1.1542   -3.1625    0.0000 O   0  0
    0.9333   -5.9375    0.0000 O   0  0
    3.3208   -5.9750    0.0000 O   0  0
    0.0792   -2.5792    0.0000 C   0  0
    3.7292   -6.2792    0.0000 C   0  0
    2.9000   -7.1000    0.0000 C   0  0
    2.0792   -6.2708    0.0000 C   0  0
    0.0833   -5.3792    0.0000 H   0  0
    3.3167   -3.1583    0.0000 H   0  0
    1.5917   -6.2792    0.0000 H   0  0
  2  1  1  1
  3  2  1  6
  4  1  1  0
  5  4  1  0
  6  8  1  0
  1  7  1  0
  1  8  1  6
  2  9  1  0
 10  3  1  0
 11  5  1  0
 12  4  1  0
 13  2  1  0
 14  6  1  0
 15 12  1  0
 16 18  1  0
 17  7  1  0
  3 18  1  0
 19 13  1  0
 10 20  1  6
 21  7  2  0
 22 15  2  0
 23 16  2  0
  4 24  1  1
  9 25  1  1
 18 26  1  6
 12 27  1  1
 28 20  1  0
 29 20  1  0
 30 20  1  0
  5 31  1  1
  6 32  1  1
 13 33  1  1
 17 13  1  0
  9  5  1  0
  3  6  1  0
 11 15  1  0
 10 19  1  0
 14 16  1  0
M  END
>  <MOLREGNO>
466506

>  <CHEMBLID>
CHEMBL514432

>  <SYNONYMS>
GINKGOLIDE B | GINGKOLIDE B

>  <MAX_PHASE>
0

>  <MOLWEIGHT>
424.4

>  <ALOGP>
-.85

>  <PSA>
148.82

>  <HBA>
10

>  <HBD>
3

>  <RO5>
0

>  <RTB>
1

>  <RO3>
N

>  <ACD_MOST_APKA>
11.05

>  <ACD_MOST_BPKA>


>  <ACD_LOGP>
2.07

>  <ACD_LOGD>
2.07

>  <AROMATIC_RINGS>
0

>  <HEAVY_ATOMS>
30

>  <QED_WEIGHTED>
.45

>  <HBA_LIPINSKI>
10

>  <HBD_LIPINSKI>
3

>  <NUM_LIPINSKI_RO5_VIOLATIONS>
0

>  <MW_MONOISOTOPIC>
424.1369

>  <MOLECULAR_SPECIES>
NEUTRAL

>  <FULL_MOLFORMULA>
C20H24O10

$$$$

  SciTegic12181313002D

 33 38  0  0  1  0            999 V2000
   -3.7558   -4.8544    0.0000 C   0  0
   -2.9350   -4.8544    0.0000 C   0  0  2  0  0  0
   -4.0072   -4.0743    0.0000 O   0  0
   -3.3454   -3.5900    0.0000 C   0  0  2  0  0  0
   -2.6761   -4.0722    0.0000 C   0  0  1  0  0  0
   -3.0936   -2.8044    0.0000 C   0  0  1  0  0  0
   -2.2686   -2.8009    0.0000 C   0  0  2  0  0  0
   -1.6013   -2.3081    0.0000 O   0  0
   -0.9263   -2.7904    0.0000 C   0  0  2  0  0  0
   -0.4932   -4.0672    0.0000 C   0  0  1  0  0  0
    0.1747   -3.5687    0.0000 C   0  0
   -0.0931   -2.7796    0.0000 O   0  0
   -1.1735   -3.5861    0.0000 C   0  0  2  0  0  0
   -2.0102   -3.5901    0.0000 C   0  0  2  0  0  0
   -2.2649   -4.3870    0.0000 C   0  0
   -1.5857   -4.8756    0.0000 C   0  0  2  0  0  0
   -0.9113   -4.3806    0.0000 C   0  0  1  0  0  0
   -2.7360   -2.3671    0.0000 C   0  0
   -2.9226   -3.3621    0.0000 O   0  0
    0.9585   -3.8123    0.0000 O   0  0
   -4.2392   -5.5179    0.0000 O   0  0
   -2.4545   -5.5198    0.0000 C   0  0
   -0.9161   -5.1985    0.0000 C   0  0
   -0.9203   -6.0193    0.0000 C   0  0
   -1.7369   -5.1940    0.0000 C   0  0
   -0.0953   -5.2001    0.0000 C   0  0
   -2.9932   -1.5876    0.0000 O   0  0
   -2.2717   -4.7798    0.0000 O   0  0
   -3.6812   -2.2179    0.0000 O   0  0
   -2.0023   -5.5840    0.0000 O   0  0
    0.0871   -4.6471    0.0000 O   0  0
   -0.6796   -2.0032    0.0000 H   0  0
   -4.0146   -3.1076    0.0000 H   0  0
  7  6  1  0
  6  4  1  0
  7 14  1  0
  4  3  1  0
 14 15  1  1
 15 16  1  0
 16 17  1  0
 17 13  1  0
  3  1  1  0
  7 18  1  1
  9  8  1  0
 15 19  1  0
 18 19  1  0
  8  7  1  0
 11 20  2  0
  9 13  1  0
  1 21  2  0
  4  5  1  0
  2 22  1  6
  1  2  1  0
 17 23  1  6
 23 24  1  0
  2  5  1  0
 23 25  1  0
 13 10  1  6
 23 26  1  0
 10 11  1  0
 18 27  2  0
 11 12  1  0
  5 28  1  6
  9 12  1  0
  6 29  1  6
 13 14  1  0
 16 30  1  6
  5 14  1  0
 10 31  1  6
  9 32  1  1
  4 33  1  6
M  END
>  <MOLREGNO>
371601

>  <CHEMBLID>
CHEMBL221821

>  <SYNONYMS>
Ginkgolide C

>  <MAX_PHASE>
0

>  <MOLWEIGHT>
440.4

>  <ALOGP>
-1.75

>  <PSA>
169.05

>  <HBA>
11

>  <HBD>
4

>  <RO5>
1

>  <RTB>
1

>  <RO3>
N

>  <ACD_MOST_APKA>
11.22

>  <ACD_MOST_BPKA>


>  <ACD_LOGP>
1.9

>  <ACD_LOGD>
1.9

>  <AROMATIC_RINGS>
0

>  <HEAVY_ATOMS>
31

>  <QED_WEIGHTED>
.34

>  <HBA_LIPINSKI>
11

>  <HBD_LIPINSKI>
4

>  <NUM_LIPINSKI_RO5_VIOLATIONS>
1

>  <MW_MONOISOTOPIC>
440.1319

>  <MOLECULAR_SPECIES>
NEUTRAL

>  <FULL_MOLFORMULA>
C20H24O11

$$$$

          11280715262D 1   1.00000     0.00000     0

 23 26  0     1  0            999 V2000
    2.6750   -2.2625    0.0000 C   0  0  3  0  0  0           0  0  0
    2.1292   -2.7167    0.0000 C   0  0  3  0  0  0           0  0  0
    3.3417   -2.7417    0.0000 C   0  0  1  0  0  0           0  0  0
    3.4667   -2.0417    0.0000 C   0  0  3  0  0  0           0  0  0
    1.8417   -3.2625    0.0000 C   0  0  0  0  0  0           0  0  0
    2.6750   -2.9625    0.0000 O   0  0  0  0  0  0           0  0  0
    2.2667   -3.5375    0.0000 C   0  0  3  0  0  0           0  0  0
    3.4667   -1.2167    0.0000 O   0  0  0  0  0  0           0  0  0
    2.8667   -0.7417    0.0000 C   0  0  0  0  0  0           0  0  0
    3.0917   -3.5292    0.0000 C   0  0  0  0  0  0           0  0  0
    2.4542   -1.4625    0.0000 C   0  0  2  0  0  0           0  0  0
    1.4417   -4.1875    0.0000 O   0  0  0  0  0  0           0  0  0
    0.7542   -3.6542    0.0000 C   0  0  0  0  0  0           0  0  0
    0.7542   -2.7792    0.0000 C   0  0  0  0  0  0           0  0  0
    4.1292   -2.4792    0.0000 C   0  0  3  0  0  0           0  0  0
    1.2542   -3.6250    0.0000 O   0  0  0  0  0  0           0  0  0
    2.7042    0.0708    0.0000 O   0  0  0  0  0  0           0  0  0
    0.2542   -4.0292    0.0000 O   0  0  0  0  0  0           0  0  0
    3.9292   -3.3250    0.0000 O   0  0  0  0  0  0           0  0  0
    1.6542   -1.2417    0.0000 O   0  0  0  0  0  0           0  0  0
    4.7417   -3.0292    0.0000 C   0  0  0  0  0  0           0  0  0
    4.2917   -1.6750    0.0000 C   0  0  0  0  0  0           0  0  0
    4.8417   -2.0667    0.0000 C   0  0  0  0  0  0           0  0  0
  2  1  1  0     0  0
  3  1  1  0     0  0
  4  1  1  0     0  0
  5  2  1  0     0  0
  6  4  1  0     0  0
  7  2  1  0     0  0
  8  4  1  0     0  0
  9 11  1  0     0  0
 10  3  1  0     0  0
 11  1  1  0     0  0
 12  7  1  0     0  0
 13 14  1  0     0  0
 14  2  1  0     0  0
  3 15  1  6     0  0
 16  5  2  0     0  0
 17  9  2  0     0  0
 18 13  2  0     0  0
  3 19  1  1     0  0
 11 20  1  1     0  0
 21 15  1  0     0  0
 22 15  1  0     0  0
 23 15  1  0     0  0
  8  9  1  0     0  0
  6  5  1  0     0  0
 10  7  1  0     0  0
 12 13  1  0     0  0
M  END
>  <MOLREGNO>
216405

>  <CHEMBLID>
CHEMBL133266

>  <SYNONYMS>
Bilobalide

>  <MAX_PHASE>
0

>  <MOLWEIGHT>
326.3

>  <ALOGP>
-.64

>  <PSA>
119.36

>  <HBA>
8

>  <HBD>
2

>  <RO5>
0

>  <RTB>
1

>  <RO3>
N

>  <ACD_MOST_APKA>
11.74

>  <ACD_MOST_BPKA>


>  <ACD_LOGP>
4.46

>  <ACD_LOGD>
4.46

>  <AROMATIC_RINGS>
0

>  <HEAVY_ATOMS>
23

>  <QED_WEIGHTED>
.61

>  <HBA_LIPINSKI>
8

>  <HBD_LIPINSKI>
2

>  <NUM_LIPINSKI_RO5_VIOLATIONS>
0

>  <MW_MONOISOTOPIC>
326.1002

>  <MOLECULAR_SPECIES>
NEUTRAL

>  <FULL_MOLFORMULA>
C15H18O8

$$$$

  SciTegic11201311142D

 25 28  0  0  1  0            999 V2000
    1.3065   -0.6867    0.0000 O   0  0
    2.6743    0.0826    0.0000 O   0  0
   -0.5611    1.0335    0.0000 O   0  0
    2.4934    1.5827    0.0000 O   0  0
    2.3147    2.1051    0.0000 O   0  0
    0.3026   -1.1575    0.0000 O   0  0
    3.6106    0.9633    0.0000 O   0  0
   -1.4376   -0.1000    0.0000 O   0  0
    1.4610    0.6392    0.0000 C   0  0  2  0  0  0
    0.6522    0.4768    0.0000 C   0  0  1  0  0  0
    1.5565    1.4587    0.0000 C   0  0  2  0  0  0
    1.8654   -0.0798    0.0000 C   0  0  2  0  0  0
    0.2477    1.1959    0.0000 C   0  0  2  0  0  0
    2.0199    1.2461    0.0000 C   0  0  2  0  0  0
    0.5567   -0.3426    0.0000 C   0  0
    0.8066    1.8027    0.0000 C   0  0
    0.0933   -0.1300    0.0000 C   0  0
    1.5678    2.4716    0.0000 C   0  0
    2.7698    0.9021    0.0000 C   0  0
   -0.6566    0.2140    0.0000 C   0  0
    1.6134    3.3568    0.0000 C   0  0
    2.3184    2.9446    0.0000 C   0  0
    0.9032    3.0288    0.0000 C   0  0
    2.2699   -0.7989    0.0000 H   0  0
   -0.1567    1.9150    0.0000 H   0  0
 12  1  1  0
  1 15  1  0
  2 12  1  0
  2 19  1  0
 13  3  1  0
  3 20  1  0
 11  4  1  0
 14  5  1  1
  6 15  2  0
  7 19  2  0
  8 20  2  0
  9 10  1  0
  9 11  1  0
  9 12  1  0
  9 14  1  1
 10 13  1  0
 10 15  1  6
 10 17  1  0
 11 16  1  0
 11 18  1  1
 12 24  1  6
 13 16  1  0
 13 25  1  6
 14 19  1  0
 17 20  1  0
 18 21  1  0
 18 22  1  0
 18 23  1  0
M  END
>  <MOLREGNO>
742001

>  <CHEMBLID>
CHEMBL1318117

>  <SYNONYMS>


>  <MAX_PHASE>
0

>  <MOLWEIGHT>
326.3

>  <ALOGP>
-.64

>  <PSA>
119.35

>  <HBA>
8

>  <HBD>
2

>  <RO5>
0

>  <RTB>
1

>  <RO3>
N

>  <ACD_MOST_APKA>
11.74

>  <ACD_MOST_BPKA>


>  <ACD_LOGP>
4.46

>  <ACD_LOGD>
4.46

>  <AROMATIC_RINGS>
0

>  <HEAVY_ATOMS>
23

>  <QED_WEIGHTED>
.61

>  <HBA_LIPINSKI>
8

>  <HBD_LIPINSKI>
2

>  <NUM_LIPINSKI_RO5_VIOLATIONS>
0

>  <MW_MONOISOTOPIC>
326.1002

>  <MOLECULAR_SPECIES>
NEUTRAL

>  <FULL_MOLFORMULA>
C15H18O8

$$$$

  SciTegic12181313002D

 32 37  0  0  1  0            999 V2000
   -0.7130   -4.9492    0.0000 C   0  0
    0.1077   -4.9492    0.0000 C   0  0  2  0  0  0
   -0.9642   -4.1692    0.0000 O   0  0
   -0.3026   -3.6850    0.0000 C   0  0  2  0  0  0
    0.3668   -4.1672    0.0000 C   0  0  1  0  0  0
   -0.0508   -2.8994    0.0000 C   0  0
    0.7742   -2.8959    0.0000 C   0  0  2  0  0  0
    1.4414   -2.4032    0.0000 O   0  0
    2.1163   -2.8854    0.0000 C   0  0  2  0  0  0
    2.5494   -4.1621    0.0000 C   0  0  1  0  0  0
    3.2172   -3.6637    0.0000 C   0  0
    2.9494   -2.8747    0.0000 O   0  0
    1.8691   -3.6810    0.0000 C   0  0  2  0  0  0
    1.0325   -3.6850    0.0000 C   0  0  2  0  0  0
    0.7778   -4.4819    0.0000 C   0  0
    1.4569   -4.9704    0.0000 C   0  0  2  0  0  0
    2.1313   -4.4754    0.0000 C   0  0  1  0  0  0
    0.3067   -2.4622    0.0000 C   0  0
    0.1202   -3.4570    0.0000 O   0  0
    4.0010   -3.9072    0.0000 O   0  0
   -1.1963   -5.6126    0.0000 O   0  0
    0.5882   -5.6146    0.0000 C   0  0
    2.1264   -5.2932    0.0000 C   0  0
    2.1223   -6.1140    0.0000 C   0  0
    1.3057   -5.2888    0.0000 C   0  0
    2.9472   -5.2949    0.0000 C   0  0
    0.0496   -1.6827    0.0000 O   0  0
    0.7710   -4.8746    0.0000 O   0  0
    1.0404   -5.6787    0.0000 O   0  0
    3.1295   -4.7420    0.0000 O   0  0
   -0.9718   -3.2026    0.0000 H   0  0
    2.3631   -2.0982    0.0000 H   0  0
  5 14  1  0
  7  6  1  0
  6  4  1  0
  7 14  1  0
  4  3  1  0
 14 15  1  1
 15 16  1  0
 16 17  1  0
 17 13  1  0
  3  1  1  0
  7 18  1  1
  9  8  1  0
 15 19  1  0
 18 19  1  0
  8  7  1  0
 11 20  2  0
  9 13  1  0
  1 21  2  0
  4  5  1  0
  2 22  1  6
  1  2  1  0
 17 23  1  6
 23 24  1  0
  2  5  1  0
 23 25  1  0
 13 10  1  6
 23 26  1  0
 10 11  1  0
 18 27  2  0
 11 12  1  0
  5 28  1  6
  9 12  1  0
 16 29  1  6
 13 14  1  0
 10 30  1  6
  4 31  1  6
  9 32  1  1
M  END
>  <MOLREGNO>
371607

>  <CHEMBLID>
CHEMBL374004

>  <SYNONYMS>
Ginkgolide J

>  <MAX_PHASE>
0

>  <MOLWEIGHT>
424.4

>  <ALOGP>
-1.18

>  <PSA>
148.82

>  <HBA>
10

>  <HBD>
3

>  <RO5>
0

>  <RTB>
1

>  <RO3>
N

>  <ACD_MOST_APKA>
11.62

>  <ACD_MOST_BPKA>


>  <ACD_LOGP>
2.51

>  <ACD_LOGD>
2.51

>  <AROMATIC_RINGS>
0

>  <HEAVY_ATOMS>
30

>  <QED_WEIGHTED>
.44

>  <HBA_LIPINSKI>
10

>  <HBD_LIPINSKI>
3

>  <NUM_LIPINSKI_RO5_VIOLATIONS>
0

>  <MW_MONOISOTOPIC>
424.1369

>  <MOLECULAR_SPECIES>
NEUTRAL

>  <FULL_MOLFORMULA>
C20H24O10

$$$$

          02060813472D 1   1.00000     0.00000     0

 42 46  0     1  0            999 V2000
   -3.4414    0.8205    0.0000 O   0  0  0  0  0  0           0  0  0
   -2.7256    0.4081    0.0000 C   0  0  0  0  0  0           0  0  0
   -2.7276   -0.4189    0.0000 C   0  0  0  0  0  0           0  0  0
   -2.0073   -0.8318    0.0000 C   0  0  0  0  0  0           0  0  0
   -2.0078    0.8204    0.0000 C   0  0  0  0  0  0           0  0  0
   -1.2968    0.4089    0.0000 C   0  0  0  0  0  0           0  0  0
   -1.2965   -0.4157    0.0000 C   0  0  0  0  0  0           0  0  0
   -0.5844   -0.8323    0.0000 C   0  0  0  0  0  0           0  0  0
    0.1322   -0.4190    0.0000 C   0  0  0  0  0  0           0  0  0
    0.1339    0.4061    0.0000 C   0  0  0  0  0  0           0  0  0
   -0.5819    0.8209    0.0000 O   0  0  0  0  0  0           0  0  0
   -0.5844   -1.6573    0.0000 O   0  0  0  0  0  0           0  0  0
    0.8455    0.8185    0.0000 C   0  0  0  0  0  0           0  0  0
    1.5577    0.4072    0.0000 C   0  0  0  0  0  0           0  0  0
    2.2767    0.8225    0.0000 C   0  0  0  0  0  0           0  0  0
    2.2738    1.6494    0.0000 C   0  0  0  0  0  0           0  0  0
    1.5563    2.0638    0.0000 C   0  0  0  0  0  0           0  0  0
    0.8441    1.6514    0.0000 C   0  0  0  0  0  0           0  0  0
   -2.0073   -1.6568    0.0000 O   0  0  0  0  0  0           0  0  0
    2.9896    2.0619    0.0000 O   0  0  0  0  0  0           0  0  0
    0.8438   -0.8314    0.0000 O   0  0  0  0  0  0           0  0  0
    0.1301   -2.8898    0.0000 C   0  0  2  0  0  0           0  0  0
    0.8446   -3.3020    0.0000 C   0  0  2  0  0  0           0  0  0
    1.5541   -2.8893    0.0000 C   0  0  1  0  0  0           0  0  0
    1.5562   -2.0686    0.0000 C   0  0  2  0  0  0           0  0  0
    0.8416   -1.6564    0.0000 C   0  0  1  0  0  0           0  0  0
    0.1250   -2.0649    0.0000 O   0  0  0  0  0  0           0  0  0
   -0.5830   -3.3046    0.0000 C   0  0  0  0  0  0           0  0  0
    2.2687   -3.3016    0.0000 O   0  0  0  0  0  0           0  0  0
   -1.2987   -2.8945    0.0000 O   0  0  0  0  0  0           0  0  0
   -2.0118   -3.3093    0.0000 C   0  0  1  0  0  0           0  0  0
   -2.7276   -2.8974    0.0000 O   0  0  0  0  0  0           0  0  0
   -3.4386   -3.3087    0.0000 C   0  0  1  0  0  0           0  0  0
   -3.4402   -4.1339    0.0000 C   0  0  2  0  0  0           0  0  0
   -2.7245   -4.5463    0.0000 C   0  0  1  0  0  0           0  0  0
   -2.0074   -4.1333    0.0000 C   0  0  2  0  0  0           0  0  0
   -4.1528   -2.8958    0.0000 C   0  0  0  0  0  0           0  0  0
   -1.2920   -4.5443    0.0000 O   0  0  0  0  0  0           0  0  0
   -2.7246   -5.3713    0.0000 O   0  0  0  0  0  0           0  0  0
   -4.1547   -4.5461    0.0000 O   0  0  0  0  0  0           0  0  0
    0.8461   -4.1269    0.0000 O   0  0  0  0  0  0           0  0  0
    2.2712   -1.6569    0.0000 O   0  0  0  0  0  0           0  0  0
  4 19  1  0     0  0
 16 20  1  0     0  0
  9 21  1  0     0  0
 22 23  1  0     0  0
  2  3  2  0     0  0
  3  4  1  0     0  0
  4  7  2  0     0  0
  6  5  2  0     0  0
  5  2  1  0     0  0
 22 27  1  0     0  0
 23 24  1  0     0  0
 24 25  1  0     0  0
 25 26  1  0     0  0
 26 27  1  0     0  0
 26 21  1  1     0  0
  6  7  1  0     0  0
 22 28  1  1     0  0
  6 11  1  0     0  0
 24 29  1  1     0  0
  7  8  1  0     0  0
 28 30  1  0     0  0
  8  9  1  0     0  0
 31 30  1  6     0  0
 31 32  1  0     0  0
  9 10  2  0     0  0
 10 11  1  0     0  0
  8 12  2  0     0  0
 13 14  2  0     0  0
 14 15  1  0     0  0
 31 36  1  0     0  0
 32 33  1  0     0  0
 33 34  1  0     0  0
 34 35  1  0     0  0
 35 36  1  0     0  0
 15 16  2  0     0  0
 33 37  1  1     0  0
 16 17  1  0     0  0
 36 38  1  1     0  0
 17 18  2  0     0  0
 35 39  1  1     0  0
 18 13  1  0     0  0
 34 40  1  6     0  0
 10 13  1  0     0  0
 23 41  1  6     0  0
  2  1  1  0     0  0
 25 42  1  6     0  0
M  END
>  <MOLREGNO>
393086

>  <CHEMBLID>
CHEMBL398138

>  <SYNONYMS>


>  <MAX_PHASE>
0

>  <MOLWEIGHT>
594.52

>  <ALOGP>
-.92

>  <PSA>
245.28

>  <HBA>
15

>  <HBD>
9

>  <RO5>
3

>  <RTB>
6

>  <RO3>
N

>  <ACD_MOST_APKA>
6.2

>  <ACD_MOST_BPKA>


>  <ACD_LOGP>
.42

>  <ACD_LOGD>
-1.08

>  <AROMATIC_RINGS>
2

>  <HEAVY_ATOMS>
42

>  <QED_WEIGHTED>
.2

>  <HBA_LIPINSKI>
15

>  <HBD_LIPINSKI>
9

>  <NUM_LIPINSKI_RO5_VIOLATIONS>
2

>  <MW_MONOISOTOPIC>
594.1585

>  <MOLECULAR_SPECIES>
ACID

>  <FULL_MOLFORMULA>
C27H30O15

$$$$

  CDK    9/16/09,9:20

 42 46  0  0  0  0  0  0  0  0999 V2000
   -0.9550  -11.8633    0.0000 C   0  0  0  0  0  0  0  0  0  0  0  0
   -0.9550  -12.6883    0.0000 C   0  0  0  0  0  0  0  0  0  0  0  0
   -0.2429  -13.0966    0.0000 C   0  0  0  0  0  0  0  0  0  0  0  0
    0.4691  -12.6883    0.0000 C   0  0  0  0  0  0  0  0  0  0  0  0
    0.4691  -11.8633    0.0000 C   0  0  0  0  0  0  0  0  0  0  0  0
   -0.2429  -11.4466    0.0000 O   0  0  0  0  0  0  0  0  0  0  0  0
    1.1830  -13.1018    0.0000 O   0  0  0  0  0  0  0  0  0  0  0  0
   -1.6688  -13.1018    0.0000 O   0  0  0  0  0  0  0  0  0  0  0  0
    1.1848  -11.4529    0.0000 O   0  0  0  0  0  0  0  0  0  0  0  0
   -0.2429  -13.9216    0.0000 O   0  0  0  0  0  0  0  0  0  0  0  0
    3.3399   -9.4028    0.0000 O   0  0  0  0  0  0  0  0  0  0  0  0
    2.6137  -11.4569    0.0000 C   0  0  0  0  0  0  0  0  0  0  0  0
    3.3258  -11.8735    0.0000 C   0  0  0  0  0  0  0  0  0  0  0  0
    4.0378  -11.4651    0.0000 C   0  0  0  0  0  0  0  0  0  0  0  0
    4.0449  -10.6444    0.0000 C   0  0  0  0  0  0  0  0  0  0  0  0
    3.3328  -10.2278    0.0000 C   0  0  0  0  0  0  0  0  0  0  0  0
    2.6136  -10.6319    0.0000 O   0  0  0  0  0  0  0  0  0  0  0  0
    4.7623  -10.2370    0.0000 O   0  0  0  0  0  0  0  0  0  0  0  0
    3.3223  -12.6985    0.0000 O   0  0  0  0  0  0  0  0  0  0  0  0
    4.7499  -11.8817    0.0000 O   0  0  0  0  0  0  0  0  0  0  0  0
    1.8981  -11.8674    0.0000 C   0  0  0  0  0  0  0  0  0  0  0  0
   -1.6706  -11.4529    0.0000 C   0  0  0  0  0  0  0  0  0  0  0  0
   -0.2389   -8.1541    0.0000 C   0  0  0  0  0  0  0  0  0  0  0  0
   -0.2401   -8.9815    0.0000 C   0  0  0  0  0  0  0  0  0  0  0  0
    0.4747   -9.3944    0.0000 C   0  0  0  0  0  0  0  0  0  0  0  0
    0.4729   -7.7414    0.0000 C   0  0  0  0  0  0  0  0  0  0  0  0
    1.1883   -8.1505    0.0000 C   0  0  0  0  0  0  0  0  0  0  0  0
    1.1871   -8.9836    0.0000 C   0  0  0  0  0  0  0  0  0  0  0  0
    1.9040   -9.3988    0.0000 C   0  0  0  0  0  0  0  0  0  0  0  0
    2.6267   -8.9856    0.0000 C   0  0  0  0  0  0  0  0  0  0  0  0
    2.6279   -8.1526    0.0000 C   0  0  0  0  0  0  0  0  0  0  0  0
    1.9064   -7.7327    0.0000 O   0  0  0  0  0  0  0  0  0  0  0  0
    1.8958  -10.2208    0.0000 O   0  0  0  0  0  0  0  0  0  0  0  0
    3.3416   -7.7444    0.0000 C   0  0  0  0  0  0  0  0  0  0  0  0
    4.0554   -8.1604    0.0000 C   0  0  0  0  0  0  0  0  0  0  0  0
    4.7704   -7.7503    0.0000 C   0  0  0  0  0  0  0  0  0  0  0  0
    4.7728   -6.9244    0.0000 C   0  0  0  0  0  0  0  0  0  0  0  0
    4.0543   -6.5103    0.0000 C   0  0  0  0  0  0  0  0  0  0  0  0
    3.3423   -6.9228    0.0000 C   0  0  0  0  0  0  0  0  0  0  0  0
    0.4744  -10.2194    0.0000 O   0  0  0  0  0  0  0  0  0  0  0  0
   -0.9535   -7.7418    0.0000 O   0  0  0  0  0  0  0  0  0  0  0  0
    5.4878   -6.5127    0.0000 O   0  0  0  0  0  0  0  0  0  0  0  0
 12 21  1  1  0  0  0 
 21  9  1  0  0  0  0 
  3  4  1  0  0  0  0 
  1 22  1  6  0  0  0 
 12 13  1  0  0  0  0 
  4  5  1  0  0  0  0 
 23 24  2  0  0  0  0 
  5  6  1  0  0  0  0 
 24 25  1  0  0  0  0 
 25 28  2  0  0  0  0 
 27 26  2  0  0  0  0 
 26 23  1  0  0  0  0 
 27 28  1  0  0  0  0 
  4  7  1  6  0  0  0 
  1  2  1  0  0  0  0 
  2  8  1  1  0  0  0 
 12 17  1  0  0  0  0 
 13 14  1  0  0  0  0 
 14 15  1  0  0  0  0 
 27 32  1  0  0  0  0 
 28 29  1  0  0  0  0 
 29 30  1  0  0  0  0 
 30 31  2  0  0  0  0 
 31 32  1  0  0  0  0 
 15 16  1  0  0  0  0 
 29 33  2  0  0  0  0 
 16 17  1  0  0  0  0 
  1  6  1  0  0  0  0 
 34 35  2  0  0  0  0 
 15 18  1  6  0  0  0 
 35 36  1  0  0  0  0 
  5  9  1  1  0  0  0 
 36 37  2  0  0  0  0 
 13 19  1  6  0  0  0 
 37 38  1  0  0  0  0 
 16 11  1  1  0  0  0 
 38 39  2  0  0  0  0 
 39 34  1  0  0  0  0 
 31 34  1  0  0  0  0 
  2  3  1  0  0  0  0 
 25 40  1  0  0  0  0 
 30 11  1  0  0  0  0 
 14 20  1  1  0  0  0 
 23 41  1  0  0  0  0 
  3 10  1  6  0  0  0 
 37 42  1  0  0  0  0 
M  END
>  <MOLREGNO>
462993

>  <CHEMBLID>
CHEMBL498879

>  <SYNONYMS>
Kaempferol 3-O-Rutinoside | Nicotiflorin | Kaempferol 3-O-Rutinose | Kaempferol 3-Rutinoside | Nicotifloroside | 3-Rutinosylkaempferol

>  <MAX_PHASE>
0

>  <MOLWEIGHT>
594.52

>  <ALOGP>
-.92

>  <PSA>
245.28

>  <HBA>
15

>  <HBD>
9

>  <RO5>
3

>  <RTB>
6

>  <RO3>
N

>  <ACD_MOST_APKA>
6.2

>  <ACD_MOST_BPKA>


>  <ACD_LOGP>
.42

>  <ACD_LOGD>
-1.08

>  <AROMATIC_RINGS>
2

>  <HEAVY_ATOMS>
42

>  <QED_WEIGHTED>
.2

>  <HBA_LIPINSKI>
15

>  <HBD_LIPINSKI>
9

>  <NUM_LIPINSKI_RO5_VIOLATIONS>
2

>  <MW_MONOISOTOPIC>
594.1585

>  <MOLECULAR_SPECIES>
ACID

>  <FULL_MOLFORMULA>
C27H30O15

$$$$

  SciTegic01161211232D

 32 35  0  0  0  0            999 V2000
   -2.1372  -22.1122    0.0000 O   0  0
   -2.8669  -22.4955    0.0000 C   0  0  1  0  0  0
   -2.8961  -23.3208    0.0000 C   0  0  2  0  0  0
   -2.1945  -23.7588    0.0000 O   0  0
   -3.6268  -23.7082    0.0000 C   0  0  1  0  0  0
   -3.6560  -24.5336    0.0000 O   0  0
   -4.3242  -23.2704    0.0000 C   0  0  2  0  0  0
   -5.0550  -23.6578    0.0000 O   0  0
   -4.2951  -22.4450    0.0000 C   0  0  2  0  0  0
   -3.5686  -22.0575    0.0000 O   0  0
   -4.9967  -22.0070    0.0000 C   0  0
   -4.9675  -21.1817    0.0000 O   0  0
   -2.8634  -21.6699    0.0000 H   0  0
   -0.7154  -22.1568    0.0000 C   0  0
   -1.4373  -22.5480    0.0000 C   0  0
   -1.4651  -23.3752    0.0000 C   0  0
   -0.7526  -23.8073    0.0000 C   0  0
   -0.7729  -24.6329    0.0000 O   0  0
   -0.0154  -22.5933    0.0000 C   0  0
   -0.0336  -23.4119    0.0000 C   0  0
    0.6623  -23.8348    0.0000 C   0  0
    1.3811  -23.4436    0.0000 C   0  0
    1.3994  -22.6249    0.0000 C   0  0
    0.6989  -22.1973    0.0000 O   0  0
    0.6428  -24.6604    0.0000 O   0  0
    2.1217  -22.2302    0.0000 C   0  0
    2.8274  -22.6614    0.0000 C   0  0
    3.5515  -22.2659    0.0000 C   0  0
    3.5713  -21.4394    0.0000 C   0  0
    2.8608  -21.0100    0.0000 C   0  0
    2.1396  -21.4078    0.0000 C   0  0
    4.2954  -21.0423    0.0000 O   0  0
 15 16  2  0
  3  5  1  0
 16 17  1  0
 17 20  2  0
  5  6  1  1
 17 18  1  0
 19 20  1  0
  5  7  1  0
  7  8  1  6
  7  9  1  0
  9 10  1  0
  9 11  1  1
 11 12  1  0
 19 24  1  0
 20 21  1  0
 21 22  1  0
 22 23  2  0
 23 24  1  0
  2 10  1  0
 21 25  2  0
  2 13  1  6
 26 27  2  0
  2  1  1  0
 27 28  1  0
 19 14  2  0
 28 29  2  0
  2  3  1  0
 29 30  1  0
 14 15  1  0
 30 31  2  0
 31 26  1  0
 23 26  1  0
  3  4  1  6
 29 32  1  0
 15  1  1  0
M  END
>  <MOLREGNO>
445924

>  <CHEMBLID>
CHEMBL487017

>  <SYNONYMS>
NSC-407303

>  <MAX_PHASE>
0

>  <MOLWEIGHT>
432.38

>  <ALOGP>
.48

>  <PSA>
166.14

>  <HBA>
10

>  <HBD>
6

>  <RO5>
1

>  <RTB>
4

>  <RO3>
N

>  <ACD_MOST_APKA>
6.13

>  <ACD_MOST_BPKA>


>  <ACD_LOGP>
-.04

>  <ACD_LOGD>
-1.34

>  <AROMATIC_RINGS>
2

>  <HEAVY_ATOMS>
31

>  <QED_WEIGHTED>
.4

>  <HBA_LIPINSKI>
10

>  <HBD_LIPINSKI>
6

>  <NUM_LIPINSKI_RO5_VIOLATIONS>
1

>  <MW_MONOISOTOPIC>
432.1056

>  <MOLECULAR_SPECIES>
ACID

>  <FULL_MOLFORMULA>
C21H20O10

$$$$

  CDK    9/16/09,9:50

 21 22  0  0  0  0  0  0  0  0999 V2000
    1.3444  -13.3041    0.0000 C   0  0  0  0  0  0  0  0  0  0  0  0
    1.3432  -14.1315    0.0000 C   0  0  0  0  0  0  0  0  0  0  0  0
    2.0581  -14.5444    0.0000 C   0  0  0  0  0  0  0  0  0  0  0  0
    2.0563  -12.8914    0.0000 C   0  0  0  0  0  0  0  0  0  0  0  0
    2.7716  -13.3005    0.0000 C   0  0  0  0  0  0  0  0  0  0  0  0
    2.7705  -14.1290    0.0000 C   0  0  0  0  0  0  0  0  0  0  0  0
    3.4834  -14.5419    0.0000 C   0  0  0  0  0  0  0  0  0  0  0  0
    4.2021  -14.1310    0.0000 C   0  0  0  0  0  0  0  0  0  0  0  0
    4.2033  -13.3025    0.0000 C   0  0  0  0  0  0  0  0  0  0  0  0
    3.4858  -12.8850    0.0000 C   0  0  0  0  0  0  0  0  0  0  0  0
    3.4858  -12.0600    0.0000 O   0  0  0  0  0  0  0  0  0  0  0  0
    3.4811  -15.3669    0.0000 O   0  0  0  0  0  0  0  0  0  0  0  0
    2.0538  -12.0664    0.0000 O   0  0  0  0  0  0  0  0  0  0  0  0
    2.0597  -15.3694    0.0000 O   0  0  0  0  0  0  0  0  0  0  0  0
    4.9154  -14.5455    0.0000 C   0  0  0  0  0  0  0  0  0  0  0  0
    4.9131  -15.3705    0.0000 O   0  0  0  0  0  0  0  0  0  0  0  0
    5.6310  -14.1350    0.0000 C   0  0  0  0  0  0  0  0  0  0  0  0
    6.3444  -14.5495    0.0000 C   0  0  0  0  0  0  0  0  0  0  0  0
    7.0600  -14.1390    0.0000 C   0  0  0  0  0  0  0  0  0  0  0  0
    7.7733  -14.5535    0.0000 C   0  0  0  0  0  0  0  0  0  0  0  0
    7.0623  -13.3140    0.0000 C   0  0  0  0  0  0  0  0  0  0  0  0
  9 10  1  0  0  0  0 
  5  6  1  0  0  0  0 
 10 11  2  0  0  0  0 
  7 12  2  0  0  0  0 
  2  3  1  0  0  0  0 
  4 13  1  0  0  0  0 
  3  6  2  0  0  0  0 
  3 14  1  0  0  0  0 
  1  2  2  0  0  0  0 
  8 15  1  0  0  0  0 
  5  4  2  0  0  0  0 
 15 16  1  1  0  0  0 
  4  1  1  0  0  0  0 
 15 17  1  0  0  0  0 
  5 10  1  0  0  0  0 
 17 18  1  0  0  0  0 
  6  7  1  0  0  0  0 
 18 19  2  0  0  0  0 
  7  8  1  0  0  0  0 
 19 20  1  0  0  0  0 
  8  9  2  0  0  0  0 
 19 21  1  0  0  0  0 
M  END
>  <MOLREGNO>
5268

>  <CHEMBLID>
CHEMBL9470

>  <SYNONYMS>
SHIKONIN

>  <MAX_PHASE>
0

>  <MOLWEIGHT>
288.3

>  <ALOGP>
2.44

>  <PSA>
94.83

>  <HBA>
5

>  <HBD>
3

>  <RO5>
0

>  <RTB>
3

>  <RO3>
N

>  <ACD_MOST_APKA>
7.34

>  <ACD_MOST_BPKA>


>  <ACD_LOGP>
2.34

>  <ACD_LOGD>
1.84

>  <AROMATIC_RINGS>
1

>  <HEAVY_ATOMS>
21

>  <QED_WEIGHTED>
.59

>  <HBA_LIPINSKI>
5

>  <HBD_LIPINSKI>
3

>  <NUM_LIPINSKI_RO5_VIOLATIONS>
0

>  <MW_MONOISOTOPIC>
288.0998

>  <MOLECULAR_SPECIES>
NEUTRAL

>  <FULL_MOLFORMULA>
C16H16O5

$$$$

  SciTegic01161211242D

 39 42  0  0  0  0            999 V2000
   -2.0667   -0.2750    0.0000 C   0  0  2  0  0  0
   -2.8833   -0.1875    0.0000 C   0  0  2  0  0  0
   -1.8917   -1.0750    0.0000 C   0  0
   -2.6042   -1.4875    0.0000 C   0  0
   -3.2167   -0.9375    0.0000 O   0  0
   -1.5167    0.3417    0.0000 C   0  0
   -3.2958    0.5250    0.0000 C   0  0
    2.3958   -0.2292    0.0000 C   0  0
    2.3958   -1.0583    0.0000 C   0  0  2  0  0  0
   -1.1792   -1.4875    0.0000 C   0  0
   -0.4583   -1.0750    0.0000 C   0  0
    0.9667   -1.0625    0.0000 C   0  0
   -4.1167    0.5167    0.0000 C   0  0
    0.2542   -1.4833    0.0000 C   0  0
    1.6833   -1.4750    0.0000 O   0  0
   -4.5333    1.2292    0.0000 C   0  0
   -2.6042   -2.3208    0.0000 C   0  0
    5.2458   -1.0458    0.0000 C   0  0
    3.1167   -1.4708    0.0000 C   0  0
   -4.1292    1.9500    0.0000 C   0  0
    5.2458   -0.2208    0.0000 C   0  0
    4.5417   -1.4625    0.0000 C   0  0
    3.8208   -1.0500    0.0000 C   0  0
   -2.8833    1.2375    0.0000 C   0  0
   -1.7708    1.1250    0.0000 O   0  0
    1.6792    0.1750    0.0000 O   0  0
    0.9667   -0.2375    0.0000 O   0  0
   -1.1708   -2.3208    0.0000 C   0  0
   -1.8917   -2.7333    0.0000 C   0  0
   -3.2958    1.9500    0.0000 C   0  0
    4.5208    0.1875    0.0000 C   0  0
   -0.7042    0.1750    0.0000 O   0  0
    3.1083    0.1875    0.0000 O   0  0
    3.8167   -0.2250    0.0000 C   0  0
   -5.3583    1.2250    0.0000 O   0  0
    5.9667   -1.4500    0.0000 O   0  0
   -3.3167   -2.7333    0.0000 O   0  0
   -4.5417    2.6625    0.0000 O   0  0
    5.9583    0.2000    0.0000 O   0  0
  2  1  1  0
  3  1  1  0
  4  3  1  0
  5  2  1  0
  1  6  1  1
  2  7  1  6
  9  8  1  1
  9 15  1  0
 10  3  2  0
 11 10  1  0
 12 14  1  0
 13  7  1  0
 14 11  2  0
 15 12  1  0
 16 13  2  0
 17  4  2  0
 18 22  1  0
 19  9  1  0
 20 30  2  0
 21 31  1  0
 22 23  2  0
 23 19  1  0
 24  7  2  0
 25  6  2  0
 26  8  2  0
 27 12  2  0
 28 10  1  0
 29 28  2  0
 30 24  1  0
 31 34  2  0
 32  6  1  0
 33  8  1  0
 34 23  1  0
 35 16  1  0
 36 18  1  0
 37 17  1  0
 38 20  1  0
 39 21  1  0
  5  4  1  0
 17 29  1  0
 16 20  1  0
 18 21  2  0
M  END
>  <MOLREGNO>
464657

>  <CHEMBLID>
CHEMBL518243

>  <SYNONYMS>
Lithospermic Acid

>  <MAX_PHASE>
0

>  <MOLWEIGHT>
538.46

>  <ALOGP>
3.45

>  <PSA>
211.27

>  <HBA>
12

>  <HBD>
7

>  <RO5>
3

>  <RTB>
9

>  <RO3>
N

>  <ACD_MOST_APKA>
2.77

>  <ACD_MOST_BPKA>


>  <ACD_LOGP>
-.59

>  <ACD_LOGD>
-5.35

>  <AROMATIC_RINGS>
3

>  <HEAVY_ATOMS>
39

>  <QED_WEIGHTED>
.12

>  <HBA_LIPINSKI>
12

>  <HBD_LIPINSKI>
7

>  <NUM_LIPINSKI_RO5_VIOLATIONS>
2

>  <MW_MONOISOTOPIC>
538.1111

>  <MOLECULAR_SPECIES>
ACID

>  <FULL_MOLFORMULA>
C27H22O12

$$$$

          05270816392D 1   1.00000     0.00000     0

 29 32  0     1  0            999 V2000
    5.2423    0.4418    0.0000 C   0  0  0  0  0  0           0  0  0
    6.6708    1.2729    0.0000 C   0  0  0  0  0  0           0  0  0
    5.9542    0.0329    0.0000 C   0  0  0  0  0  0           0  0  0
    6.9397   -1.6995    0.0000 C   0  0  0  0  0  0           0  0  0
    7.6593   -1.2902    0.0000 C   0  0  2  0  0  0           0  0  0
    7.8777   -0.4957    0.0000 C   0  0  2  0  0  0           0  0  0
    7.4682    0.2240    0.0000 C   0  0  0  0  0  0           0  0  0
    6.6739    0.4423    0.0000 C   0  0  0  0  0  0           0  0  0
    6.1488   -1.4808    0.0000 C   0  0  0  0  0  0           0  0  0
    5.7360   -0.7614    0.0000 C   0  0  0  0  0  0           0  0  0
    4.9083   -0.7604    0.0000 C   0  0  0  0  0  0           0  0  0
    4.4927   -1.4779    0.0000 C   0  0  0  0  0  0           0  0  0
    4.9107   -2.1980    0.0000 C   0  0  0  0  0  0           0  0  0
    5.7369   -2.1956    0.0000 C   0  0  0  0  0  0           0  0  0
    3.6682   -1.4782    0.0000 O   0  0  0  0  0  0           0  0  0
    3.2562   -2.1925    0.0000 C   0  0  0  0  0  0           0  0  0
    4.5003   -2.9132    0.0000 O   0  0  0  0  0  0           0  0  0
    8.3103   -1.7964    0.0000 C   0  0  0  0  0  0           0  0  0
    8.6959   -0.3934    0.0000 C   0  0  0  0  0  0           0  0  0
    4.5284    0.0292    0.0000 O   0  0  0  0  0  0           0  0  0
    3.8142    0.4413    0.0000 C   0  0  0  0  0  0           0  0  0
    4.0817   -0.7559    0.0000 O   0  0  0  0  0  0           0  0  0
    3.3670   -0.3436    0.0000 C   0  0  0  0  0  0           0  0  0
    4.9145   -3.6262    0.0000 C   0  0  0  0  0  0           0  0  0
    5.2436    1.2690    0.0000 C   0  0  0  0  0  0           0  0  0
    5.9511    1.6800    0.0000 C   0  0  0  0  0  0           0  0  0
    5.7789    2.4800    0.0000 O   0  0  0  0  0  0           0  0  0
    4.9647    2.5633    0.0000 C   0  0  0  0  0  0           0  0  0
    4.6341    1.8148    0.0000 O   0  0  0  0  0  0           0  0  0
 10  3  1  0     0  0
 13 14  2  0     0  0
 14  9  1  0     0  0
  9  4  1  0     0  0
 12 15  1  0     0  0
  4  5  1  0     0  0
 15 16  1  0     0  0
  5  6  1  0     0  0
 13 17  1  0     0  0
  6  7  1  0     0  0
  5 18  1  6     0  0
  7  8  1  0     0  0
  6 19  1  6     0  0
  8  3  2  0     0  0
  1 20  1  0     0  0
  1  3  1  0     0  0
 20 21  1  0     0  0
 11 22  1  0     0  0
  9 10  2  0     0  0
 22 23  1  0     0  0
  8  2  1  0     0  0
 17 24  1  0     0  0
 25 26  1  0     0  0
 10 11  1  0     0  0
  2 26  2  0     0  0
 11 12  2  0     0  0
 25  1  2  0     0  0
 12 13  1  0     0  0
 26 27  1  0     0  0
 27 28  1  0     0  0
 28 29  1  0     0  0
 29 25  1  0     0  0
M  END
>  <MOLREGNO>
422218

>  <CHEMBLID>
CHEMBL402435

>  <SYNONYMS>
WUWEIZISU B

>  <MAX_PHASE>
0

>  <MOLWEIGHT>
400.46

>  <ALOGP>
5.07

>  <PSA>
55.38

>  <HBA>
6

>  <HBD>
0

>  <RO5>
1

>  <RTB>
4

>  <RO3>
N

>  <ACD_MOST_APKA>


>  <ACD_MOST_BPKA>


>  <ACD_LOGP>
5.34

>  <ACD_LOGD>
5.34

>  <AROMATIC_RINGS>
2

>  <HEAVY_ATOMS>
29

>  <QED_WEIGHTED>
.71

>  <HBA_LIPINSKI>
6

>  <HBD_LIPINSKI>
0

>  <NUM_LIPINSKI_RO5_VIOLATIONS>
1

>  <MW_MONOISOTOPIC>
400.1886

>  <MOLECULAR_SPECIES>


>  <FULL_MOLFORMULA>
C23H28O6

$$$$

  SciTegic01161211222D

 31 33  0  0  0  0            999 V2000
   -4.1518    2.0856    0.0000 C   0  0
   -4.1529    1.2574    0.0000 C   0  0
   -3.4373    0.8440    0.0000 C   0  0
   -2.7201    1.2579    0.0000 C   0  0
   -2.7229    2.0892    0.0000 C   0  0
   -3.4391    2.4988    0.0000 C   0  0
   -3.4356    0.0203    0.0000 C   0  0
   -4.1526   -0.3918    0.0000 C   0  0
   -4.1532   -1.2169    0.0000 C   0  0
   -3.4375   -1.6309    0.0000 C   0  0
   -2.7197   -1.2137    0.0000 C   0  0
   -2.7227   -0.3899    0.0000 C   0  0
   -2.0564    1.2430    0.0000 C   0  0
   -1.9688   -0.3796    0.0000 C   0  0
   -1.4974    0.8384    0.0000 C   0  0  1  0  0  0
   -1.4683    0.0250    0.0000 C   0  0  1  0  0  0
   -3.4416    3.3247    0.0000 O   0  0
   -2.7275    3.7398    0.0000 C   0  0
   -4.8670    2.4984    0.0000 O   0  0
   -4.8672    3.3243    0.0000 C   0  0
   -4.8684    0.8450    0.0000 O   0  0
   -5.5834    1.2585    0.0000 C   0  0
   -4.8673    0.0220    0.0000 O   0  0
   -5.5831   -0.3900    0.0000 C   0  0
   -4.8687   -1.6294    0.0000 O   0  0
   -4.8693   -2.4552    0.0000 C   0  0
   -3.4366   -2.4567    0.0000 O   0  0
   -2.7209   -2.8689    0.0000 C   0  0
   -0.7550   -0.3879    0.0000 C   0  0
   -0.9135    1.4265    0.0000 O   0  0
   -0.7841    0.4255    0.0000 C   0  0
 13 15  1  0
  7  8  2  0
 14 16  1  0
 15 16  1  0
  6 17  1  0
  8  9  1  0
 17 18  1  0
  4  5  1  0
  1 19  1  0
  9 10  2  0
 19 20  1  0
  2  3  1  0
  2 21  1  0
 10 11  1  0
 21 22  1  0
  5  6  2  0
  8 23  1  0
 11 12  2  0
 23 24  1  0
 12  7  1  0
  9 25  1  0
  3  7  1  0
 25 26  1  0
  6  1  1  0
 10 27  1  0
  4 13  1  0
 27 28  1  0
  1  2  2  0
 16 29  1  1
 12 14  1  0
 15 30  1  0
  3  4  2  0
 15 31  1  1
M  END
>  <MOLREGNO>
422221

>  <CHEMBLID>
CHEMBL253688

>  <SYNONYMS>
Schisandrin

>  <MAX_PHASE>
0

>  <MOLWEIGHT>
432.51

>  <ALOGP>
4.05

>  <PSA>
75.61

>  <HBA>
7

>  <HBD>
1

>  <RO5>
0

>  <RTB>
6

>  <RO3>
N

>  <ACD_MOST_APKA>


>  <ACD_MOST_BPKA>


>  <ACD_LOGP>
3.15

>  <ACD_LOGD>
3.15

>  <AROMATIC_RINGS>
2

>  <HEAVY_ATOMS>
31

>  <QED_WEIGHTED>
.74

>  <HBA_LIPINSKI>
7

>  <HBD_LIPINSKI>
1

>  <NUM_LIPINSKI_RO5_VIOLATIONS>
0

>  <MW_MONOISOTOPIC>
432.2148

>  <MOLECULAR_SPECIES>
NEUTRAL

>  <FULL_MOLFORMULA>
C24H32O7

$$$$

  CDK    9/16/09,9:19

 37 40  0  0  0  0  0  0  0  0999 V2000
    2.5954   -7.1454    0.0000 C   0  0  0  0  0  0  0  0  0  0  0  0
    3.0775   -6.4740    0.0000 O   0  0  0  0  0  0  0  0  0  0  0  0
    3.0919   -7.8122    0.0000 O   0  0  0  0  0  0  0  0  0  0  0  0
    3.8716   -7.5421    0.0000 C   0  0  0  0  0  0  0  0  0  0  0  0
    3.8566   -6.7171    0.0000 C   0  0  0  0  0  0  0  0  0  0  0  0
    4.5686   -6.3003    0.0000 C   0  0  0  0  0  0  0  0  0  0  0  0
    4.5893   -7.9507    0.0000 C   0  0  0  0  0  0  0  0  0  0  0  0
    5.3052   -7.5244    0.0000 C   0  0  0  0  0  0  0  0  0  0  0  0
    5.2920   -6.7004    0.0000 C   0  0  0  0  0  0  0  0  0  0  0  0
    5.8641   -6.1119    0.0000 C   0  0  0  0  0  0  0  0  0  0  0  0
    6.6736   -6.0952    0.0000 C   0  0  0  0  0  0  0  0  0  0  0  0
    7.2719   -6.6702    0.0000 C   0  0  0  0  0  0  0  0  0  0  0  0
    7.2808   -7.4994    0.0000 C   0  0  0  0  0  0  0  0  0  0  0  0
    5.8953   -8.0986    0.0000 C   0  0  0  0  0  0  0  0  0  0  0  0
    6.7130   -8.0869    0.0000 C   0  0  0  0  0  0  0  0  0  0  0  0
    7.1282   -8.7966    0.0000 C   0  0  0  0  0  0  0  0  0  0  0  0
    6.7305   -9.5113    0.0000 C   0  0  0  0  0  0  0  0  0  0  0  0
    5.9105   -9.5285    0.0000 C   0  0  0  0  0  0  0  0  0  0  0  0
    5.4849   -8.8156    0.0000 C   0  0  0  0  0  0  0  0  0  0  0  0
    7.1885  -10.3232    0.0000 O   0  0  0  0  0  0  0  0  0  0  0  0
    7.9464  -10.6203    0.0000 C   0  0  0  0  0  0  0  0  0  0  0  0
    5.5224  -10.2698    0.0000 O   0  0  0  0  0  0  0  0  0  0  0  0
    5.9507  -10.9706    0.0000 C   0  0  0  0  0  0  0  0  0  0  0  0
    4.9565   -9.3121    0.0000 O   0  0  0  0  0  0  0  0  0  0  0  0
    4.6011   -8.7812    0.0000 O   0  0  0  0  0  0  0  0  0  0  0  0
    3.7498   -9.1184    0.0000 C   0  0  0  0  0  0  0  0  0  0  0  0
    4.4621  -10.0906    0.0000 C   0  0  0  0  0  0  0  0  0  0  0  0
    7.6705   -5.9455    0.0000 C   0  0  0  0  0  0  0  0  0  0  0  0
    8.0820   -6.8036    0.0000 O   0  0  0  0  0  0  0  0  0  0  0  0
    6.9878   -5.3223    0.0000 C   0  0  0  0  0  0  0  0  0  0  0  0
    8.0609   -7.7563    0.0000 O   0  0  0  0  0  0  0  0  0  0  0  0
    8.4312   -8.4960    0.0000 C   0  0  0  0  0  0  0  0  0  0  0  0
    8.2332   -9.0655    0.0000 O   0  0  0  0  0  0  0  0  0  0  0  0
    9.2453   -8.3283    0.0000 C   0  0  0  0  0  0  0  0  0  0  0  0
    9.7913   -8.9424    0.0000 C   0  0  0  0  0  0  0  0  0  0  0  0
    9.5040   -7.5485    0.0000 C   0  0  0  0  0  0  0  0  0  0  0  0
    8.9580   -6.9344    0.0000 C   0  0  0  0  0  0  0  0  0  0  0  0
 17 18  2  0  0  0  0 
  4  5  1  0  0  0  0 
 18 19  1  0  0  0  0 
 19 14  2  0  0  0  0 
  1  2  1  0  0  0  0 
 17 20  1  0  0  0  0 
 20 21  1  0  0  0  0 
  4  3  1  0  0  0  0 
 18 22  1  0  0  0  0 
  3  1  1  0  0  0  0 
 22 23  1  0  0  0  0 
  8 14  1  0  0  0  0 
 19 24  1  0  0  0  0 
  8  9  2  0  0  0  0 
  7 25  1  0  0  0  0 
  9 10  1  0  0  0  0 
 25 26  1  0  0  0  0 
 10 11  1  0  0  0  0 
 24 27  1  0  0  0  0 
 11 12  1  0  0  0  0 
 12 28  1  0  0  0  0 
 12 13  1  0  0  0  0 
 12 29  1  6  0  0  0 
 13 15  1  0  0  0  0 
 11 30  1  6  0  0  0 
 13 31  1  1  0  0  0 
  4  7  2  0  0  0  0 
 31 32  1  0  0  0  0 
  5  6  2  0  0  0  0 
 32 33  2  0  0  0  0 
 14 15  1  0  0  0  0 
 32 34  1  0  0  0  0 
  6  9  1  0  0  0  0 
 15 16  2  0  0  0  0 
  8  7  1  0  0  0  0 
 34 35  1  0  0  0  0 
 16 17  1  0  0  0  0 
 34 36  2  0  0  0  0 
  2  5  1  0  0  0  0 
 36 37  1  0  0  0  0 
M  END
>  <MOLREGNO>
462244

>  <CHEMBLID>
CHEMBL490308

>  <SYNONYMS>
Schisantherin B

>  <MAX_PHASE>
0

>  <MOLWEIGHT>
514.56

>  <ALOGP>
4.94

>  <PSA>
101.91

>  <HBA>
9

>  <HBD>
1

>  <RO5>
1

>  <RTB>
7

>  <RO3>
N

>  <ACD_MOST_APKA>
13.59

>  <ACD_MOST_BPKA>


>  <ACD_LOGP>
4.26

>  <ACD_LOGD>
4.26

>  <AROMATIC_RINGS>
2

>  <HEAVY_ATOMS>
37

>  <QED_WEIGHTED>
.41

>  <HBA_LIPINSKI>
9

>  <HBD_LIPINSKI>
1

>  <NUM_LIPINSKI_RO5_VIOLATIONS>
0

>  <MW_MONOISOTOPIC>
514.2203

>  <MOLECULAR_SPECIES>
NEUTRAL

>  <FULL_MOLFORMULA>
C28H34O9

$$$$

  SciTegic01161211242D

 38 42  0  0  0  0            999 V2000
    8.4069  -15.0385    0.0000 C   0  0  2  0  0  0
    8.8167  -14.3217    0.0000 C   0  0  2  0  0  0
    8.5989  -13.5232    0.0000 C   0  0  2  0  0  0
    7.8835  -13.1178    0.0000 C   0  0
    6.6743  -14.0490    0.0000 C   0  0
    7.0848  -13.3356    0.0000 C   0  0
    6.6723  -12.6255    0.0000 C   0  0
    5.8557  -14.0528    0.0000 C   0  0
    7.6084  -15.2561    0.0000 C   0  0
    6.8933  -14.8454    0.0000 C   0  0
    6.1821  -15.2591    0.0000 C   0  0
    6.1848  -16.0835    0.0000 C   0  0
    6.9045  -16.4924    0.0000 C   0  0
    7.6128  -16.0763    0.0000 C   0  0
    9.2502  -13.0168    0.0000 C   0  0
    9.5709  -14.8018    0.0000 O   0  0
    5.3122  -15.2386    0.0000 O   0  0
    4.6997  -15.9099    0.0000 C   0  0
    5.4724  -16.4995    0.0000 O   0  0
    5.4766  -17.3246    0.0000 C   0  0
    6.9105  -17.3174    0.0000 O   0  0
    7.6279  -17.7248    0.0000 C   0  0
    5.4473  -14.7697    0.0000 O   0  0
    9.1137  -15.4662    0.0000 O   0  0
    9.0954  -16.2911    0.0000 C   0  0
    9.8006  -16.7193    0.0000 C   0  0
    8.3719  -16.6877    0.0000 O   0  0
    9.6879  -13.8732    0.0000 C   0  0
    9.7788  -17.5425    0.0000 C   0  0
   10.4832  -17.9706    0.0000 C   0  0
   11.2077  -17.5739    0.0000 C   0  0
   11.2233  -16.7448    0.0000 C   0  0
   10.5183  -16.3204    0.0000 C   0  0
    5.4409  -13.3456    0.0000 C   0  0
    5.8476  -12.6222    0.0000 C   0  0
    5.2853  -12.0119    0.0000 O   0  0
    4.5309  -12.3582    0.0000 C   0  0
    4.6273  -13.1824    0.0000 O   0  0
  1  2  1  0
 17 18  1  0
 34  8  2  0
 12 19  1  0
  8  5  1  0
 19 20  1  0
  2  3  1  0
 13 21  1  0
  3  4  1  0
 21 22  1  0
  9 10  2  0
  8 23  1  0
  4  6  1  0
  1 24  1  1
 10 11  1  0
 24 25  1  0
 25 26  1  0
 11 12  2  0
 25 27  2  0
 10  5  1  0
  2 28  1  0
 12 13  1  0
 26 29  2  0
  5  6  2  0
 29 30  1  0
 13 14  2  0
 30 31  2  0
 14  9  1  0
 31 32  1  0
  9  1  1  0
 32 33  2  0
 33 26  1  0
 34 35  1  0
  3 15  1  6
  6  7  1  0
  2 16  1  6
  7 35  2  0
 11 17  1  0
 35 36  1  0
 36 37  1  0
 37 38  1  0
 38 34  1  0
M  END
>  <MOLREGNO>
576081

>  <CHEMBLID>
CHEMBL565966

>  <SYNONYMS>
SCHISANTHERIN A

>  <MAX_PHASE>
0

>  <MOLWEIGHT>
522.54

>  <ALOGP>
4.84

>  <PSA>
112.91

>  <HBA>
9

>  <HBD>
2

>  <RO5>
1

>  <RTB>
6

>  <RO3>
N

>  <ACD_MOST_APKA>
8.7

>  <ACD_MOST_BPKA>


>  <ACD_LOGP>
4.69

>  <ACD_LOGD>
4.67

>  <AROMATIC_RINGS>
3

>  <HEAVY_ATOMS>
38

>  <QED_WEIGHTED>
.44

>  <HBA_LIPINSKI>
9

>  <HBD_LIPINSKI>
2

>  <NUM_LIPINSKI_RO5_VIOLATIONS>
0

>  <MW_MONOISOTOPIC>
522.189

>  <MOLECULAR_SPECIES>
NEUTRAL

>  <FULL_MOLFORMULA>
C29H30O9

$$$$

  SciTegic01161211252D

 30 33  0  0  0  0            999 V2000
   -3.7741   -2.2894    0.0000 C   0  0
   -4.3575   -1.7060    0.0000 C   0  0  1  0  0  0
   -5.1825   -1.7060    0.0000 C   0  0  1  0  0  0
   -5.7658   -2.2894    0.0000 C   0  0
   -5.7658   -3.1144    0.0000 C   0  0
   -5.1825   -3.6977    0.0000 C   0  0
   -4.3575   -3.6977    0.0000 C   0  0
   -3.7741   -3.1144    0.0000 C   0  0
   -6.5628   -3.3279    0.0000 C   0  0
   -6.7763   -4.1248    0.0000 C   0  0
   -6.1929   -4.7081    0.0000 C   0  0
   -5.3960   -4.4946    0.0000 C   0  0
   -2.9772   -3.3279    0.0000 C   0  0
   -2.7637   -4.1248    0.0000 C   0  0
   -3.3470   -4.7081    0.0000 C   0  0
   -4.1439   -4.4946    0.0000 C   0  0
   -4.8127   -5.0780    0.0000 O   0  0
   -5.3960   -5.6614    0.0000 C   0  0
   -4.5564   -5.2091    0.0000 O   0  0
   -3.8420   -5.6216    0.0000 C   0  0
   -6.4065   -5.5050    0.0000 O   0  0
   -7.2315   -5.5050    0.0000 C   0  0
   -7.5732   -4.3383    0.0000 O   0  0
   -7.9857   -3.6238    0.0000 C   0  0
   -2.9725   -5.4432    0.0000 O   0  0
   -2.1577   -5.3142    0.0000 C   0  0
   -2.0286   -4.4994    0.0000 O   0  0
   -4.0418   -0.9438    0.0000 C   0  0
   -5.1825   -0.8810    0.0000 O   0  0
   -5.9794   -1.4925    0.0000 C   0  0
  1  2  1  0
  2  3  1  0
  3  4  1  0
  4  5  1  0
  6  7  1  0
  8  1  1  0
  5  9  1  0
  6  5  2  0
 12  6  1  0
  9 10  2  0
 10 11  1  0
 11 12  2  0
 16  7  1  0
  7  8  2  0
  8 13  1  0
 13 14  2  0
 15 16  2  0
 12 17  1  0
 17 18  1  0
 16 19  1  0
 19 20  1  0
 11 21  1  0
 21 22  1  0
 10 23  1  0
 23 24  1  0
 14 27  1  0
 14 15  1  0
 15 25  1  0
 25 26  1  0
 26 27  1  0
  2 28  1  1
  3 29  1  1
  3 30  1  0
M  END
>  <MOLREGNO>
641197

>  <CHEMBLID>
CHEMBL1159658

>  <SYNONYMS>
GOMISIN A

>  <MAX_PHASE>
0

>  <MOLWEIGHT>
416.46

>  <ALOGP>
3.85

>  <PSA>
75.61

>  <HBA>
7

>  <HBD>
1

>  <RO5>
0

>  <RTB>
4

>  <RO3>
N

>  <ACD_MOST_APKA>


>  <ACD_MOST_BPKA>


>  <ACD_LOGP>
3.44

>  <ACD_LOGD>
3.44

>  <AROMATIC_RINGS>
2

>  <HEAVY_ATOMS>
30

>  <QED_WEIGHTED>
.81

>  <HBA_LIPINSKI>
7

>  <HBD_LIPINSKI>
1

>  <NUM_LIPINSKI_RO5_VIOLATIONS>
0

>  <MW_MONOISOTOPIC>
416.1835

>  <MOLECULAR_SPECIES>
NEUTRAL

>  <FULL_MOLFORMULA>
C23H28O7

$$$$

  CDK    9/16/09,9:20

 28 32  0  0  0  0  0  0  0  0999 V2000
   16.2158  -18.8548    0.0000 C   0  0  0  0  0  0  0  0  0  0  0  0
   16.7965  -18.2700    0.0000 C   0  0  0  0  0  0  0  0  0  0  0  0
   16.7964  -17.4425    0.0000 C   0  0  0  0  0  0  0  0  0  0  0  0
   16.2158  -16.8618    0.0000 C   0  0  0  0  0  0  0  0  0  0  0  0
   14.8036  -17.4437    0.0000 C   0  0  0  0  0  0  0  0  0  0  0  0
   15.3883  -16.8619    0.0000 C   0  0  0  0  0  0  0  0  0  0  0  0
   15.1764  -16.0667    0.0000 C   0  0  0  0  0  0  0  0  0  0  0  0
   14.0110  -17.2320    0.0000 C   0  0  0  0  0  0  0  0  0  0  0  0
   15.3884  -18.8548    0.0000 C   0  0  0  0  0  0  0  0  0  0  0  0
   14.8056  -18.2694    0.0000 C   0  0  0  0  0  0  0  0  0  0  0  0
   14.0092  -18.4819    0.0000 C   0  0  0  0  0  0  0  0  0  0  0  0
   15.1766  -19.6487    0.0000 C   0  0  0  0  0  0  0  0  0  0  0  0
   13.7960  -16.4390    0.0000 C   0  0  0  0  0  0  0  0  0  0  0  0
   14.3777  -15.8513    0.0000 C   0  0  0  0  0  0  0  0  0  0  0  0
   13.9986  -15.1164    0.0000 O   0  0  0  0  0  0  0  0  0  0  0  0
   13.1825  -15.2500    0.0000 C   0  0  0  0  0  0  0  0  0  0  0  0
   13.0574  -16.0673    0.0000 O   0  0  0  0  0  0  0  0  0  0  0  0
   13.4287  -17.8164    0.0000 O   0  0  0  0  0  0  0  0  0  0  0  0
   12.6315  -17.6044    0.0000 C   0  0  0  0  0  0  0  0  0  0  0  0
   13.1833  -18.4750    0.0000 O   0  0  0  0  0  0  0  0  0  0  0  0
   12.7649  -19.1860    0.0000 C   0  0  0  0  0  0  0  0  0  0  0  0
   17.5586  -17.1268    0.0000 C   0  0  0  0  0  0  0  0  0  0  0  0
   14.3824  -19.8643    0.0000 C   0  0  0  0  0  0  0  0  0  0  0  0
   13.7966  -19.2818    0.0000 C   0  0  0  0  0  0  0  0  0  0  0  0
   13.0615  -19.6589    0.0000 O   0  0  0  0  0  0  0  0  0  0  0  0
   13.1931  -20.4746    0.0000 C   0  0  0  0  0  0  0  0  0  0  0  0
   14.0094  -20.6014    0.0000 O   0  0  0  0  0  0  0  0  0  0  0  0
   17.5593  -18.5843    0.0000 C   0  0  0  0  0  0  0  0  0  0  0  0
 12  9  1  0  0  0  0 
 13 14  1  0  0  0  0 
 10  5  1  0  0  0  0 
  5  6  2  0  0  0  0 
  9  1  1  0  0  0  0 
  6  7  1  0  0  0  0 
  7 14  2  0  0  0  0 
 14 15  1  0  0  0  0 
 15 16  1  0  0  0  0 
 16 17  1  0  0  0  0 
 17 13  1  0  0  0  0 
  1  2  1  0  0  0  0 
  8 18  1  0  0  0  0 
 13  8  2  0  0  0  0 
 18 19  1  0  0  0  0 
  8  5  1  0  0  0  0 
 11 20  1  0  0  0  0 
  2  3  1  0  0  0  0 
 20 21  1  0  0  0  0 
  3  4  1  0  0  0  0 
  3 22  1  6  0  0  0 
 23 24  1  0  0  0  0 
  9 10  2  0  0  0  0 
  4  6  1  0  0  0  0 
 10 11  1  0  0  0  0 
 11 24  2  0  0  0  0 
 24 25  1  0  0  0  0 
 25 26  1  0  0  0  0 
 26 27  1  0  0  0  0 
 27 23  1  0  0  0  0 
 23 12  2  0  0  0  0 
  2 28  1  6  0  0  0 
M  END
>  <MOLREGNO>
422222

>  <CHEMBLID>
CHEMBL437412

>  <SYNONYMS>
Wuweizisu C | Schisandrin C

>  <MAX_PHASE>
0

>  <MOLWEIGHT>
384.42

>  <ALOGP>
4.87

>  <PSA>
55.38

>  <HBA>
6

>  <HBD>
0

>  <RO5>
0

>  <RTB>
2

>  <RO3>
N

>  <ACD_MOST_APKA>


>  <ACD_MOST_BPKA>


>  <ACD_LOGP>
5.62

>  <ACD_LOGD>
5.62

>  <AROMATIC_RINGS>
2

>  <HEAVY_ATOMS>
28

>  <QED_WEIGHTED>
.74

>  <HBA_LIPINSKI>
6

>  <HBD_LIPINSKI>
0

>  <NUM_LIPINSKI_RO5_VIOLATIONS>
0

>  <MW_MONOISOTOPIC>
384.1573

>  <MOLECULAR_SPECIES>


>  <FULL_MOLFORMULA>
C22H24O6

$$$$

  SciTegic01161211232D

 29 31  0  0  0  0            999 V2000
    9.3737   -2.1941    0.0000 C   0  0
    8.6104   -1.8776    0.0000 C   0  0  2  0  0  0
    8.0265   -2.4572    0.0000 C   0  0
    7.2013   -2.4541    0.0000 C   0  0
    6.9863   -3.2506    0.0000 C   0  0
    6.1849   -3.4631    0.0000 C   0  0
    5.6053   -2.8792    0.0000 C   0  0
    5.8237   -2.0794    0.0000 C   0  0
    6.6217   -1.8703    0.0000 C   0  0
    6.6248   -1.0450    0.0000 C   0  0
    5.8250   -0.8266    0.0000 C   0  0
    5.6158   -0.0287    0.0000 C   0  0
    6.1997    0.5509    0.0000 C   0  0
    6.9961    0.3359    0.0000 C   0  0
    7.2086   -0.4654    0.0000 C   0  0
    8.0339   -0.4685    0.0000 C   0  0
    8.6135   -1.0524    0.0000 C   0  0  2  0  0  0
    9.0288   -0.3377    0.0000 C   0  0
    5.8281    1.2904    0.0000 O   0  0
    4.8792    0.3484    0.0000 O   0  0
    5.0774   -1.1739    0.0000 O   0  0
    5.0754   -1.7300    0.0000 O   0  0
    4.3971   -2.1973    0.0000 C   0  0
    4.8074   -3.0884    0.0000 O   0  0
    4.5924   -3.8847    0.0000 C   0  0
    5.9699   -4.2594    0.0000 O   0  0
    6.5528   -4.8467    0.0000 C   0  0
    4.4619    1.0660    0.0000 C   0  0
    6.2799    1.9779    0.0000 C   0  0
  2  3  1  0
  3  4  1  0
  4  5  2  0
  5  6  1  0
  6  7  2  0
  7  8  1  0
  8  9  2  0
  4  9  1  0
  9 10  1  0
 10 11  2  0
 11 12  1  0
 12 13  2  0
 13 14  1  0
 14 15  2  0
 10 15  1  0
 15 16  1  0
 16 17  1  0
  2 17  1  0
 17 18  1  6
 13 19  1  0
 12 20  1  0
 11 21  1  0
  8 22  1  0
 22 23  1  0
  7 24  1  0
 24 25  1  0
  6 26  1  0
 26 27  1  0
 20 28  1  0
  2  1  1  6
 19 29  1  0
M  END
>  <MOLREGNO>
462242

>  <CHEMBLID>
CHEMBL490125

>  <SYNONYMS>
Schisanhenol | (+)-Gomisin K3

>  <MAX_PHASE>
0

>  <MOLWEIGHT>
402.48

>  <ALOGP>
5.04

>  <PSA>
66.38

>  <HBA>
6

>  <HBD>
1

>  <RO5>
1

>  <RTB>
5

>  <RO3>
N

>  <ACD_MOST_APKA>
8.96

>  <ACD_MOST_BPKA>


>  <ACD_LOGP>
4.83

>  <ACD_LOGD>
4.82

>  <AROMATIC_RINGS>
2

>  <HEAVY_ATOMS>
29

>  <QED_WEIGHTED>
.76

>  <HBA_LIPINSKI>
6

>  <HBD_LIPINSKI>
1

>  <NUM_LIPINSKI_RO5_VIOLATIONS>
1

>  <MW_MONOISOTOPIC>
402.2042

>  <MOLECULAR_SPECIES>
NEUTRAL

>  <FULL_MOLFORMULA>
C23H30O6

$$$$

  CDK    9/16/09,9:20

 28 30  0  0  0  0  0  0  0  0999 V2000
   -1.2467   -7.0882    0.0000 C   0  0  0  0  0  0  0  0  0  0  0  0
   -0.6660   -6.5075    0.0000 C   0  0  0  0  0  0  0  0  0  0  0  0
   -0.6661   -5.6800    0.0000 C   0  0  0  0  0  0  0  0  0  0  0  0
   -1.2467   -5.0952    0.0000 C   0  0  0  0  0  0  0  0  0  0  0  0
   -2.6589   -5.6812    0.0000 C   0  0  0  0  0  0  0  0  0  0  0  0
   -2.0742   -5.0953    0.0000 C   0  0  0  0  0  0  0  0  0  0  0  0
   -2.2897   -4.2980    0.0000 C   0  0  0  0  0  0  0  0  0  0  0  0
   -3.0896   -4.0855    0.0000 C   0  0  0  0  0  0  0  0  0  0  0  0
   -3.6737   -4.6765    0.0000 C   0  0  0  0  0  0  0  0  0  0  0  0
   -3.4551   -5.4716    0.0000 C   0  0  0  0  0  0  0  0  0  0  0  0
   -2.0741   -7.0882    0.0000 C   0  0  0  0  0  0  0  0  0  0  0  0
   -2.6569   -6.5069    0.0000 C   0  0  0  0  0  0  0  0  0  0  0  0
   -3.4497   -6.7214    0.0000 C   0  0  0  0  0  0  0  0  0  0  0  0
   -3.6608   -7.5169    0.0000 C   0  0  0  0  0  0  0  0  0  0  0  0
   -3.0729   -8.0976    0.0000 C   0  0  0  0  0  0  0  0  0  0  0  0
   -2.2823   -7.8800    0.0000 C   0  0  0  0  0  0  0  0  0  0  0  0
    0.0967   -5.3656    0.0000 C   0  0  0  0  0  0  0  0  0  0  0  0
    0.0962   -6.8232    0.0000 C   0  0  0  0  0  0  0  0  0  0  0  0
   -3.3063   -3.2895    0.0000 O   0  0  0  0  0  0  0  0  0  0  0  0
   -4.4719   -4.4680    0.0000 O   0  0  0  0  0  0  0  0  0  0  0  0
   -4.6904   -3.6724    0.0000 C   0  0  0  0  0  0  0  0  0  0  0  0
   -4.0353   -6.0581    0.0000 O   0  0  0  0  0  0  0  0  0  0  0  0
   -4.8333   -5.8489    0.0000 C   0  0  0  0  0  0  0  0  0  0  0  0
   -4.2500   -6.9333    0.0000 O   0  0  0  0  0  0  0  0  0  0  0  0
   -4.8316   -6.3482    0.0000 C   0  0  0  0  0  0  0  0  0  0  0  0
   -4.4568   -7.7339    0.0000 O   0  0  0  0  0  0  0  0  0  0  0  0
   -5.0426   -7.1530    0.0000 C   0  0  0  0  0  0  0  0  0  0  0  0
   -3.2812   -8.8959    0.0000 O   0  0  0  0  0  0  0  0  0  0  0  0
  5  6  2  0  0  0  0 
 13 14  2  0  0  0  0 
 11  1  1  0  0  0  0 
 14 15  1  0  0  0  0 
  6  7  1  0  0  0  0 
 15 16  2  0  0  0  0 
 16 11  1  0  0  0  0 
  1  2  1  0  0  0  0 
  3 17  1  6  0  0  0 
  7  8  2  0  0  0  0 
  2 18  1  6  0  0  0 
  2  3  1  0  0  0  0 
  8 19  1  0  0  0  0 
  8  9  1  0  0  0  0 
  9 20  1  0  0  0  0 
  3  4  1  0  0  0  0 
 20 21  1  0  0  0  0 
  9 10  2  0  0  0  0 
 10 22  1  0  0  0  0 
 10  5  1  0  0  0  0 
 22 23  1  0  0  0  0 
  4  6  1  0  0  0  0 
 13 24  1  0  0  0  0 
 24 25  1  0  0  0  0 
 11 12  2  0  0  0  0 
 14 26  1  0  0  0  0 
 12  5  1  0  0  0  0 
 26 27  1  0  0  0  0 
 12 13  1  0  0  0  0 
 15 28  1  0  0  0  0 
M  END
>  <MOLREGNO>
422217

>  <CHEMBLID>
CHEMBL251864

>  <SYNONYMS>
(-)-Gomisin J | Gomisin J

>  <MAX_PHASE>
0

>  <MOLWEIGHT>
388.45

>  <ALOGP>
4.82

>  <PSA>
77.38

>  <HBA>
6

>  <HBD>
2

>  <RO5>
0

>  <RTB>
4

>  <RO3>
N

>  <ACD_MOST_APKA>
8.97

>  <ACD_MOST_BPKA>


>  <ACD_LOGP>
4.61

>  <ACD_LOGD>
4.6

>  <AROMATIC_RINGS>
2

>  <HEAVY_ATOMS>
28

>  <QED_WEIGHTED>
.78

>  <HBA_LIPINSKI>
6

>  <HBD_LIPINSKI>
2

>  <NUM_LIPINSKI_RO5_VIOLATIONS>
0

>  <MW_MONOISOTOPIC>
388.1886

>  <MOLECULAR_SPECIES>
NEUTRAL

>  <FULL_MOLFORMULA>
C22H28O6

$$$$

  CDK    9/16/09,9:20

 39 43  0  0  0  0  0  0  0  0999 V2000
    8.2575  -18.8507    0.0000 C   0  0  0  0  0  0  0  0  0  0  0  0
    8.8382  -18.2700    0.0000 C   0  0  0  0  0  0  0  0  0  0  0  0
    8.8381  -17.4425    0.0000 C   0  0  0  0  0  0  0  0  0  0  0  0
    8.2575  -16.8577    0.0000 C   0  0  0  0  0  0  0  0  0  0  0  0
    6.8453  -17.4437    0.0000 C   0  0  0  0  0  0  0  0  0  0  0  0
    7.4300  -16.8578    0.0000 C   0  0  0  0  0  0  0  0  0  0  0  0
    7.2144  -16.0605    0.0000 C   0  0  0  0  0  0  0  0  0  0  0  0
    6.4146  -15.8480    0.0000 C   0  0  0  0  0  0  0  0  0  0  0  0
    5.8305  -16.4390    0.0000 C   0  0  0  0  0  0  0  0  0  0  0  0
    6.0491  -17.2341    0.0000 C   0  0  0  0  0  0  0  0  0  0  0  0
    6.1979  -15.0520    0.0000 O   0  0  0  0  0  0  0  0  0  0  0  0
    6.7789  -14.4663    0.0000 C   0  0  0  0  0  0  0  0  0  0  0  0
    5.0323  -16.2305    0.0000 O   0  0  0  0  0  0  0  0  0  0  0  0
    4.8138  -15.4349    0.0000 C   0  0  0  0  0  0  0  0  0  0  0  0
    5.4689  -17.8206    0.0000 O   0  0  0  0  0  0  0  0  0  0  0  0
    4.6709  -17.6114    0.0000 C   0  0  0  0  0  0  0  0  0  0  0  0
    9.6008  -17.1281    0.0000 C   0  0  0  0  0  0  0  0  0  0  0  0
    9.2458  -18.9792    0.0000 O   0  0  0  0  0  0  0  0  0  0  0  0
    9.6625  -18.2667    0.0000 C   0  0  0  0  0  0  0  0  0  0  0  0
    8.5732  -19.6129    0.0000 O   0  0  0  0  0  0  0  0  0  0  0  0
    8.0710  -20.2674    0.0000 C   0  0  0  0  0  0  0  0  0  0  0  0
    8.3867  -21.0296    0.0000 C   0  0  0  0  0  0  0  0  0  0  0  0
    7.2530  -20.1597    0.0000 O   0  0  0  0  0  0  0  0  0  0  0  0
    7.8825  -21.6834    0.0000 C   0  0  0  0  0  0  0  0  0  0  0  0
    8.1976  -22.4450    0.0000 C   0  0  0  0  0  0  0  0  0  0  0  0
    9.0164  -22.5533    0.0000 C   0  0  0  0  0  0  0  0  0  0  0  0
    9.5191  -21.8938    0.0000 C   0  0  0  0  0  0  0  0  0  0  0  0
    9.2012  -21.1347    0.0000 C   0  0  0  0  0  0  0  0  0  0  0  0
    7.4301  -18.8507    0.0000 C   0  0  0  0  0  0  0  0  0  0  0  0
    6.8472  -18.2693    0.0000 C   0  0  0  0  0  0  0  0  0  0  0  0
    6.0544  -18.4839    0.0000 C   0  0  0  0  0  0  0  0  0  0  0  0
    7.2218  -19.6425    0.0000 C   0  0  0  0  0  0  0  0  0  0  0  0
    6.4313  -19.8601    0.0000 C   0  0  0  0  0  0  0  0  0  0  0  0
    5.8445  -19.2809    0.0000 C   0  0  0  0  0  0  0  0  0  0  0  0
    5.1123  -19.6599    0.0000 O   0  0  0  0  0  0  0  0  0  0  0  0
    5.2465  -20.4734    0.0000 C   0  0  0  0  0  0  0  0  0  0  0  0
    6.0617  -20.5971    0.0000 O   0  0  0  0  0  0  0  0  0  0  0  0
    5.2542  -18.6958    0.0000 O   0  0  0  0  0  0  0  0  0  0  0  0
    4.6725  -18.1107    0.0000 C   0  0  0  0  0  0  0  0  0  0  0  0
  2  3  1  0  0  0  0 
  2 19  1  0  0  0  0 
  8  9  1  0  0  0  0 
  1 20  1  1  0  0  0 
  3  4  1  0  0  0  0 
 20 21  1  0  0  0  0 
  9 10  2  0  0  0  0 
 21 22  1  0  0  0  0 
 10  5  1  0  0  0  0 
 21 23  2  0  0  0  0 
  4  6  1  0  0  0  0 
 22 24  2  0  0  0  0 
  8 11  1  0  0  0  0 
 24 25  1  0  0  0  0 
 25 26  2  0  0  0  0 
 11 12  1  0  0  0  0 
 26 27  1  0  0  0  0 
 30  5  1  0  0  0  0 
 27 28  2  0  0  0  0 
 28 22  1  0  0  0  0 
  9 13  1  0  0  0  0 
  5  6  2  0  0  0  0 
 29 30  2  0  0  0  0 
 13 14  1  0  0  0  0 
 30 31  1  0  0  0  0 
 31 34  2  0  0  0  0 
 29  1  1  0  0  0  0 
 33 32  2  0  0  0  0 
 32 29  1  0  0  0  0 
 33 34  1  0  0  0  0 
 10 15  1  0  0  0  0 
  6  7  1  0  0  0  0 
 15 16  1  0  0  0  0 
  1  2  1  0  0  0  0 
  3 17  1  6  0  0  0 
 34 35  1  0  0  0  0 
 35 36  1  0  0  0  0 
 36 37  1  0  0  0  0 
 37 33  1  0  0  0  0 
  7  8  2  0  0  0  0 
 31 38  1  0  0  0  0 
  2 18  1  6  0  0  0 
 38 39  1  0  0  0  0 
M  END
>  <MOLREGNO>
482852

>  <CHEMBLID>
CHEMBL515928

>  <SYNONYMS>
Gomisin G

>  <MAX_PHASE>
0

>  <MOLWEIGHT>
536.57

>  <ALOGP>
5.06

>  <PSA>
101.91

>  <HBA>
9

>  <HBD>
1

>  <RO5>
2

>  <RTB>
7

>  <RO3>
N

>  <ACD_MOST_APKA>
13.7

>  <ACD_MOST_BPKA>


>  <ACD_LOGP>
5.3

>  <ACD_LOGD>
5.3

>  <AROMATIC_RINGS>
3

>  <HEAVY_ATOMS>
39

>  <QED_WEIGHTED>
.42

>  <HBA_LIPINSKI>
9

>  <HBD_LIPINSKI>
1

>  <NUM_LIPINSKI_RO5_VIOLATIONS>
1

>  <MW_MONOISOTOPIC>
536.2046

>  <MOLECULAR_SPECIES>
NEUTRAL

>  <FULL_MOLFORMULA>
C30H32O9

$$$$

  SciTegic01201417202D

 39 43  0  0  0  0            999 V2000
   28.6053   -1.7520    0.0000 C   0  0
   29.3201   -2.1648    0.0000 C   0  0
   30.0364   -1.7516    0.0000 C   0  0
   30.0335   -0.9212    0.0000 C   0  0
   29.3217   -2.9875    0.0000 C   0  0
   28.6056   -3.3991    0.0000 C   0  0
   30.0368   -4.2200    0.0000 C   0  0
   30.0337   -3.3973    0.0000 C   0  0
   30.8576   -1.7496    0.0000 C   0  0
   30.8576   -3.3953    0.0000 C   0  0  1  0  0  0
   31.4450   -2.8913    0.0000 C   0  0  1  0  0  0
   31.4408   -2.3329    0.0000 C   0  0  1  0  0  0
   27.8918   -2.9857    0.0000 O   0  0
   27.8907   -2.1639    0.0000 O   0  0
   32.2017   -2.0144    0.0000 C   0  0
   27.1770   -3.3973    0.0000 C   0  0
   29.3199   -4.6368    0.0000 C   0  0
   28.6047   -4.2269    0.0000 C   0  0
   31.1450   -4.1685    0.0000 O   0  0
   28.5988   -0.9219    0.0000 C   0  0
   29.3165   -0.5136    0.0000 C   0  0
   29.1499    0.2964    0.0000 O   0  0
   28.3292    0.3881    0.0000 C   0  0
   27.9887   -0.3655    0.0000 O   0  0
   27.8908   -4.6402    0.0000 O   0  0
   27.1760   -4.2285    0.0000 C   0  0
   29.3225   -5.4616    0.0000 O   0  0
   28.6093   -5.8763    0.0000 C   0  0
   32.2698   -2.8913    0.0000 C   0  0
   31.8533   -3.6037    0.0000 O   0  0
   29.2995   -7.0656    0.0000 C   0  0
   29.8118   -7.7320    0.0000 O   0  0
   27.1589   -7.3262    0.0000 C   0  0  2  0  0  0
   25.8630   -5.6026    0.0000 C   0  0  1  0  0  0
   26.0335   -8.0113    0.0000 C   0  0
   27.2832   -8.2612    0.0000 O   0  0
   25.8584   -3.4411    0.0000 C   0  0
   25.0807   -5.8648    0.0000 C   0  0
   30.5702   -2.6220    0.0000 H   0  0
 20  1  2  0
  1  2  1  0
  2  3  2  0
  3  4  1  0
  4 21  2  0
  5  6  2  0
  6 18  1  0
 17  7  1  0
  7  8  2  0
  8  5  1  0
  2  5  1  0
  3  9  1  0
  8 10  1  0
 10 11  1  0
  9 12  1  0
 11 12  1  0
  6 13  1  0
  1 14  1  0
 12 15  1  6
 13 16  1  0
 17 18  2  0
 10 19  1  0
 20 21  1  0
 21 22  1  0
 22 23  1  0
 23 24  1  0
 24 20  1  0
 18 25  1  0
 25 26  1  0
 17 27  1  0
 27 28  1  0
 11 29  1  1
 11 30  1  0
 19 31  1  0
 31 32  2  0
 31 33  1  0
 33 34  1  0
 33 35  1  1
 33 36  1  0
 34 37  1  0
 37 14  1  0
 34 38  1  6
 10 39  1  6
M  END
>  <MOLREGNO>
1563106

>  <CHEMBLID>
CHEMBL2386340

>  <SYNONYMS>


>  <MAX_PHASE>
0

>  <MOLWEIGHT>
530.56

>  <ALOGP>
3.5

>  <PSA>
122.14

>  <HBA>
10

>  <HBD>
2

>  <RO5>
1

>  <RTB>
3

>  <RO3>
N

>  <ACD_MOST_APKA>


>  <ACD_MOST_BPKA>
4.6

>  <ACD_LOGP>
5.92

>  <ACD_LOGD>
5.92

>  <AROMATIC_RINGS>
2

>  <HEAVY_ATOMS>
38

>  <QED_WEIGHTED>
.57

>  <HBA_LIPINSKI>
10

>  <HBD_LIPINSKI>
2

>  <NUM_LIPINSKI_RO5_VIOLATIONS>
0

>  <MW_MONOISOTOPIC>
530.2152

>  <MOLECULAR_SPECIES>
NEUTRAL

>  <FULL_MOLFORMULA>
C28H34O10

$$$$

  SciTegic02101214292D

 39 41  0  0  0  0            999 V2000
   14.7668  -23.4970    0.0000 C   0  0
   15.4767  -23.0681    0.0000 C   0  0
   15.4645  -22.2433    0.0000 C   0  0  2  0  0  0
   14.7489  -21.8404    0.0000 C   0  0
   14.0369  -22.2590    0.0000 C   0  0  1  0  0  0
   14.0467  -23.0909    0.0000 O   0  0
   13.3132  -21.8629    0.0000 O   0  0
   14.7321  -21.0185    0.0000 C   0  0
   15.4450  -20.5922    0.0000 C   0  0
   15.4804  -23.8981    0.0000 C   0  0
   14.7725  -24.3180    0.0000 O   0  0
   16.2026  -24.3061    0.0000 O   0  0
   16.2108  -25.1323    0.0000 C   0  0
   16.1774  -21.8274    0.0000 C   0  0
   16.8967  -22.2314    0.0000 C   0  0
   17.6096  -21.8113    0.0000 O   0  0
   16.9073  -23.0534    0.0000 O   0  0
   18.3331  -22.2154    0.0000 C   0  0
   19.0460  -21.7953    0.0000 C   0  0
   19.7654  -22.1992    0.0000 C   0  0
   19.7751  -23.0211    0.0000 C   0  0
   20.4868  -23.4271    0.0000 C   0  0
   21.2012  -23.0052    0.0000 C   0  0
   21.1907  -22.1729    0.0000 C   0  0
   20.4678  -21.7715    0.0000 C   0  0
   21.9255  -23.4126    0.0000 O   0  0
   12.6084  -22.2799    0.0000 C   0  0  2  0  0  0
   11.8908  -21.8769    0.0000 O   0  0
   11.1850  -22.2993    0.0000 C   0  0  1  0  0  0
   11.1927  -23.1229    0.0000 C   0  0  2  0  0  0
   11.9114  -23.5182    0.0000 C   0  0  1  0  0  0
   12.6224  -23.0985    0.0000 C   0  0  1  0  0  0
   13.3411  -23.5050    0.0000 O   0  0
   10.4855  -23.5356    0.0000 O   0  0
   10.4684  -21.8881    0.0000 C   0  0
   11.9213  -24.3424    0.0000 O   0  0
    9.7570  -22.3092    0.0000 O   0  0
   12.6084  -21.4565    0.0000 H   0  0
   21.8978  -21.7508    0.0000 O   0  0
  1  2  2  0
  1  6  1  0
  2  3  1  0
  3  4  1  0
  4  5  1  0
  5  6  1  0
  5  7  1  1
  4  8  2  0
  8  9  1  0
  2 10  1  0
 10 11  2  0
 10 12  1  0
 12 13  1  0
  3 14  1  6
 14 15  1  0
 15 16  1  0
 15 17  2  0
 16 18  1  0
 18 19  1  0
 19 20  1  0
 20 21  2  0
 21 22  1  0
 22 23  2  0
 23 24  1  0
 24 25  2  0
 25 20  1  0
 23 26  1  0
 27  7  1  0
 27 28  1  0
 27 32  1  0
 28 29  1  0
 29 30  1  0
 30 31  1  0
 31 32  1  0
 32 33  1  6
 30 34  1  6
 29 35  1  1
 31 36  1  1
 35 37  1  0
 27 38  1  6
 24 39  1  0
M  END
>  <MOLREGNO>
1250653

>  <CHEMBLID>
CHEMBL1911053

>  <SYNONYMS>
Oleuropein

>  <MAX_PHASE>
0

>  <MOLWEIGHT>
540.51

>  <ALOGP>
.17

>  <PSA>
201.67

>  <HBA>
13

>  <HBD>
6

>  <RO5>
3

>  <RTB>
11

>  <RO3>
N

>  <ACD_MOST_APKA>
9.7

>  <ACD_MOST_BPKA>


>  <ACD_LOGP>
-.87

>  <ACD_LOGD>
-.87

>  <AROMATIC_RINGS>
1

>  <HEAVY_ATOMS>
38

>  <QED_WEIGHTED>
.13

>  <HBA_LIPINSKI>
13

>  <HBD_LIPINSKI>
6

>  <NUM_LIPINSKI_RO5_VIOLATIONS>
2

>  <MW_MONOISOTOPIC>
540.1843

>  <MOLECULAR_SPECIES>
NEUTRAL

>  <FULL_MOLFORMULA>
C25H32O13

$$$$

  SciTegic01161211212D

 10 10  0  0  0  0            999 V2000
   -4.1556    0.5875    0.0000 C   0  0
   -4.1568   -0.2398    0.0000 C   0  0
   -3.4419   -0.6527    0.0000 C   0  0
   -2.7255   -0.2394    0.0000 C   0  0
   -2.7284    0.5912    0.0000 C   0  0
   -3.4437    1.0003    0.0000 C   0  0
   -3.4462    1.8253    0.0000 C   0  0
   -2.7330    2.2399    0.0000 C   0  0
   -2.7354    3.0649    0.0000 O   0  0
   -3.4421   -1.4777    0.0000 O   0  0
  2  3  1  0
  5  6  2  0
  6  1  1  0
  1  2  2  0
  6  7  1  0
  3  4  2  0
  7  8  1  0
  8  9  1  0
  4  5  1  0
  3 10  1  0
M  END
>  <MOLREGNO>
85506

>  <CHEMBLID>
CHEMBL53566

>  <SYNONYMS>
tyrosol

>  <MAX_PHASE>
0

>  <MOLWEIGHT>
138.16

>  <ALOGP>
1.3

>  <PSA>
40.46

>  <HBA>
2

>  <HBD>
2

>  <RO5>
0

>  <RTB>
2

>  <RO3>
Y

>  <ACD_MOST_APKA>
10.17

>  <ACD_MOST_BPKA>


>  <ACD_LOGP>
.85

>  <ACD_LOGD>
.85

>  <AROMATIC_RINGS>
1

>  <HEAVY_ATOMS>
10

>  <QED_WEIGHTED>
.65

>  <HBA_LIPINSKI>
2

>  <HBD_LIPINSKI>
2

>  <NUM_LIPINSKI_RO5_VIOLATIONS>
0

>  <MW_MONOISOTOPIC>
138.0681

>  <MOLECULAR_SPECIES>
NEUTRAL

>  <FULL_MOLFORMULA>
C8H10O2

$$$$

  CDK    9/16/09,9:57

 12 12  0  0  0  0  0  0  0  0999 V2000
    5.5875   -2.8290    0.0000 C   0  0  0  0  0  0  0  0  0  0  0  0
    5.5875   -2.0040    0.0000 C   0  0  0  0  0  0  0  0  0  0  0  0
    6.3034   -1.5915    0.0000 C   0  0  0  0  0  0  0  0  0  0  0  0
    7.0192   -2.0040    0.0000 C   0  0  0  0  0  0  0  0  0  0  0  0
    7.7309   -1.5915    0.0000 C   0  0  0  0  0  0  0  0  0  0  0  0
    8.4468   -2.0040    0.0000 C   0  0  0  0  0  0  0  0  0  0  0  0
    8.4468   -2.8290    0.0000 C   0  0  0  0  0  0  0  0  0  0  0  0
    9.1585   -3.2415    0.0000 O   0  0  0  0  0  0  0  0  0  0  0  0
    7.7309   -3.2415    0.0000 C   0  0  0  0  0  0  0  0  0  0  0  0
    7.0192   -2.8290    0.0000 C   0  0  0  0  0  0  0  0  0  0  0  0
    4.8716   -3.2415    0.0000 O   0  0  0  0  0  0  0  0  0  0  0  0
    9.1611   -1.5912    0.0000 O   0  0  0  0  0  0  0  0  0  0  0  0
  1  2  1  0  0  0  0 
  2  3  1  0  0  0  0 
  3  4  1  0  0  0  0 
  4  5  2  0  0  0  0 
  5  6  1  0  0  0  0 
  6  7  2  0  0  0  0 
  7  8  1  0  0  0  0 
  7  9  1  0  0  0  0 
  9 10  2  0  0  0  0 
  4 10  1  0  0  0  0 
  1 11  1  0  0  0  0 
  6 12  1  0  0  0  0 
M  END
>  <MOLREGNO>
516890

>  <CHEMBLID>
CHEMBL485747

>  <SYNONYMS>
Hydroxytyrosol

>  <MAX_PHASE>
0

>  <MOLWEIGHT>
168.19

>  <ALOGP>
1.52

>  <PSA>
60.69

>  <HBA>
3

>  <HBD>
3

>  <RO5>
0

>  <RTB>
3

>  <RO3>
N

>  <ACD_MOST_APKA>
9.83

>  <ACD_MOST_BPKA>


>  <ACD_LOGP>
.39

>  <ACD_LOGD>
.39

>  <AROMATIC_RINGS>
1

>  <HEAVY_ATOMS>
12

>  <QED_WEIGHTED>
.6

>  <HBA_LIPINSKI>
3

>  <HBD_LIPINSKI>
3

>  <NUM_LIPINSKI_RO5_VIOLATIONS>
0

>  <MW_MONOISOTOPIC>
168.0786

>  <MOLECULAR_SPECIES>
NEUTRAL

>  <FULL_MOLFORMULA>
C9H12O3

$$$$

  SciTegic04301217482D

 11 11  0  0  0  0            999 V2000
   -4.1223   -0.1333    0.0000 C   0  0
   -4.1234   -0.9607    0.0000 C   0  0
   -3.4086   -1.3735    0.0000 C   0  0
   -2.6922   -0.9602    0.0000 C   0  0
   -2.6950   -0.1297    0.0000 C   0  0
   -3.4104    0.2795    0.0000 C   0  0
   -4.8382   -1.3726    0.0000 O   0  0
   -3.4088   -2.1985    0.0000 O   0  0
   -3.4129    1.1045    0.0000 C   0  0
   -2.6996    1.5191    0.0000 C   0  0
   -1.9839    1.1087    0.0000 O   0  0
  5  6  2  0
  6  1  1  0
  1  2  2  0
  2  7  1  0
  3  4  2  0
  3  8  1  0
  6  9  1  0
  4  5  1  0
  9 10  1  0
  2  3  1  0
 10 11  1  0
M  END
>  <MOLREGNO>
1279018

>  <CHEMBLID>
CHEMBL1950045

>  <SYNONYMS>
3,4-Dihydroxyphenylethanol

>  <MAX_PHASE>
0

>  <MOLWEIGHT>
154.16

>  <ALOGP>
1.06

>  <PSA>
60.69

>  <HBA>
3

>  <HBD>
3

>  <RO5>
0

>  <RTB>
2

>  <RO3>
N

>  <ACD_MOST_APKA>


>  <ACD_MOST_BPKA>


>  <ACD_LOGP>
4.73

>  <ACD_LOGD>
4.73

>  <AROMATIC_RINGS>
1

>  <HEAVY_ATOMS>
11

>  <QED_WEIGHTED>
.56

>  <HBA_LIPINSKI>
3

>  <HBD_LIPINSKI>
3

>  <NUM_LIPINSKI_RO5_VIOLATIONS>
0

>  <MW_MONOISOTOPIC>
154.063

>  <MOLECULAR_SPECIES>


>  <FULL_MOLFORMULA>
C8H10O3

$$$$

  CDK    9/16/09,9:48

 30 33  0  0  0  0  0  0  0  0999 V2000
   -2.5830  -23.1916    0.0000 C   0  0  0  0  0  0  0  0  0  0  0  0
   -2.5450  -21.8572    0.0000 C   0  0  0  0  0  0  0  0  0  0  0  0
   -3.0487  -22.5106    0.0000 C   0  0  0  0  0  0  0  0  0  0  0  0
   -4.8014  -23.4583    0.0000 C   0  0  0  0  0  0  0  0  0  0  0  0
   -4.8026  -24.2857    0.0000 C   0  0  0  0  0  0  0  0  0  0  0  0
   -4.0878  -24.6985    0.0000 C   0  0  0  0  0  0  0  0  0  0  0  0
   -4.0896  -23.0455    0.0000 C   0  0  0  0  0  0  0  0  0  0  0  0
   -3.3742  -23.4547    0.0000 C   0  0  0  0  0  0  0  0  0  0  0  0
   -3.3693  -24.2857    0.0000 C   0  0  0  0  0  0  0  0  0  0  0  0
   -2.5774  -24.5379    0.0000 N   0  0  0  0  0  0  0  0  0  0  0  0
   -2.0929  -23.8627    0.0000 C   0  0  0  0  0  0  0  0  0  0  0  0
   -2.3987  -22.3861    0.0000 H   0  0  0  0  0  0  0  0  0  0  0  0
   -1.7691  -22.1311    0.0000 N   0  0  0  0  0  0  0  0  0  0  0  0
   -1.7918  -22.9590    0.0000 C   0  0  0  0  0  0  0  0  0  0  0  0
   -1.0901  -23.3902    0.0000 C   0  0  0  0  0  0  0  0  0  0  0  0
   -1.0448  -21.7345    0.0000 C   0  0  0  0  0  0  0  0  0  0  0  0
   -0.3386  -22.1703    0.0000 C   0  0  0  0  0  0  0  0  0  0  0  0
   -0.3646  -22.9946    0.0000 C   0  0  0  0  0  0  0  0  0  0  0  0
    0.3323  -23.4269    0.0000 C   0  0  0  0  0  0  0  0  0  0  0  0
    1.0597  -23.0396    0.0000 C   0  0  0  0  0  0  0  0  0  0  0  0
    1.0858  -22.2153    0.0000 O   0  0  0  0  0  0  0  0  0  0  0  0
    1.8129  -21.8256    0.0000 C   0  0  0  0  0  0  0  0  0  0  0  0
    0.3052  -24.2514    0.0000 C   0  0  0  0  0  0  0  0  0  0  0  0
   -0.4225  -24.6402    0.0000 O   0  0  0  0  0  0  0  0  0  0  0  0
    1.0056  -24.6872    0.0000 O   0  0  0  0  0  0  0  0  0  0  0  0
   -0.5653  -23.7931    0.0000 H   0  0  0  0  0  0  0  0  0  0  0  0
   -1.2679  -23.8593    0.0000 O   0  0  0  0  0  0  0  0  0  0  0  0
    0.3881  -21.7798    0.0000 C   0  0  0  0  0  0  0  0  0  0  0  0
    0.4133  -20.9552    0.0000 C   0  0  0  0  0  0  0  0  0  0  0  0
   -0.4497  -25.4647    0.0000 C   0  0  0  0  0  0  0  0  0  0  0  0
  6  9  2  0  0  0  0 
  2  3  1  0  0  0  0 
  8  7  2  0  0  0  0 
 13 16  1  0  0  0  0 
 14 15  1  0  0  0  0 
 15 18  1  0  0  0  0 
 17 16  1  0  0  0  0 
 17 18  1  0  0  0  0 
  7  4  1  0  0  0  0 
  8  9  1  0  0  0  0 
  3  1  1  0  0  0  0 
  1 14  1  0  0  0  0 
 18 19  1  0  0  0  0 
 19 20  2  0  0  0  0 
 20 21  1  0  0  0  0 
  4  5  2  0  0  0  0 
 21 22  1  0  0  0  0 
  9 10  1  0  0  0  0 
 19 23  1  0  0  0  0 
 10 11  1  0  0  0  0 
 23 24  1  0  0  0  0 
 11  1  1  0  0  0  0 
 23 25  2  0  0  0  0 
  1  8  1  6  0  0  0 
 18 26  1  6  0  0  0 
 13  2  1  0  0  0  0 
 11 27  2  0  0  0  0 
 14 12  1  6  0  0  0 
 17 28  1  6  0  0  0 
 13 14  1  0  0  0  0 
 28 29  1  0  0  0  0 
  5  6  1  0  0  0  0 
 24 30  1  0  0  0  0 
M  END
>  <MOLREGNO>
466735

>  <CHEMBLID>
CHEMBL519266

>  <SYNONYMS>
Rhynchophylline

>  <MAX_PHASE>
0

>  <MOLWEIGHT>
384.47

>  <ALOGP>
2.1

>  <PSA>
67.87

>  <HBA>
5

>  <HBD>
1

>  <RO5>
0

>  <RTB>
5

>  <RO3>
N

>  <ACD_MOST_APKA>
13.61

>  <ACD_MOST_BPKA>
8.49

>  <ACD_LOGP>
1.63

>  <ACD_LOGD>
.51

>  <AROMATIC_RINGS>
1

>  <HEAVY_ATOMS>
28

>  <QED_WEIGHTED>
.48

>  <HBA_LIPINSKI>
6

>  <HBD_LIPINSKI>
1

>  <NUM_LIPINSKI_RO5_VIOLATIONS>
0

>  <MW_MONOISOTOPIC>
384.2049

>  <MOLECULAR_SPECIES>
NEUTRAL

>  <FULL_MOLFORMULA>
C22H28N2O4

$$$$

  CDK    9/16/09,9:48

 30 33  0  0  0  0  0  0  0  0999 V2000
   -2.2371  -17.0749    0.0000 C   0  0  0  0  0  0  0  0  0  0  0  0
   -2.1992  -15.7405    0.0000 C   0  0  0  0  0  0  0  0  0  0  0  0
   -2.7028  -16.3939    0.0000 C   0  0  0  0  0  0  0  0  0  0  0  0
   -4.4556  -17.3416    0.0000 C   0  0  0  0  0  0  0  0  0  0  0  0
   -4.4568  -18.1690    0.0000 C   0  0  0  0  0  0  0  0  0  0  0  0
   -3.7419  -18.5819    0.0000 C   0  0  0  0  0  0  0  0  0  0  0  0
   -3.7437  -16.9289    0.0000 C   0  0  0  0  0  0  0  0  0  0  0  0
   -3.0284  -17.3380    0.0000 C   0  0  0  0  0  0  0  0  0  0  0  0
   -3.0235  -18.1690    0.0000 C   0  0  0  0  0  0  0  0  0  0  0  0
   -2.2316  -18.4212    0.0000 N   0  0  0  0  0  0  0  0  0  0  0  0
   -1.7470  -17.7460    0.0000 C   0  0  0  0  0  0  0  0  0  0  0  0
   -2.0529  -16.2695    0.0000 H   0  0  0  0  0  0  0  0  0  0  0  0
   -1.4233  -16.0145    0.0000 N   0  0  0  0  0  0  0  0  0  0  0  0
   -1.4460  -16.8423    0.0000 C   0  0  0  0  0  0  0  0  0  0  0  0
   -0.7443  -17.2735    0.0000 C   0  0  0  0  0  0  0  0  0  0  0  0
   -0.6989  -15.6178    0.0000 C   0  0  0  0  0  0  0  0  0  0  0  0
    0.0072  -16.0537    0.0000 C   0  0  0  0  0  0  0  0  0  0  0  0
   -0.0188  -16.8779    0.0000 C   0  0  0  0  0  0  0  0  0  0  0  0
    0.6782  -17.3102    0.0000 C   0  0  0  0  0  0  0  0  0  0  0  0
    1.4056  -16.9229    0.0000 C   0  0  0  0  0  0  0  0  0  0  0  0
    1.4316  -16.0986    0.0000 O   0  0  0  0  0  0  0  0  0  0  0  0
    2.1587  -15.7089    0.0000 C   0  0  0  0  0  0  0  0  0  0  0  0
    0.6510  -18.1348    0.0000 C   0  0  0  0  0  0  0  0  0  0  0  0
   -0.0767  -18.5235    0.0000 O   0  0  0  0  0  0  0  0  0  0  0  0
    1.3515  -18.5706    0.0000 O   0  0  0  0  0  0  0  0  0  0  0  0
   -0.2195  -17.6764    0.0000 H   0  0  0  0  0  0  0  0  0  0  0  0
   -0.9220  -17.7426    0.0000 O   0  0  0  0  0  0  0  0  0  0  0  0
    0.7339  -15.6631    0.0000 C   0  0  0  0  0  0  0  0  0  0  0  0
    0.7591  -14.8385    0.0000 C   0  0  0  0  0  0  0  0  0  0  0  0
   -0.1039  -19.3481    0.0000 C   0  0  0  0  0  0  0  0  0  0  0  0
  6  9  2  0  0  0  0 
  2  3  1  0  0  0  0 
  8  7  2  0  0  0  0 
 13 16  1  0  0  0  0 
 14 15  1  0  0  0  0 
 15 18  1  0  0  0  0 
 17 16  1  0  0  0  0 
 17 18  1  0  0  0  0 
  7  4  1  0  0  0  0 
  8  9  1  0  0  0  0 
  3  1  1  0  0  0  0 
  1 14  1  0  0  0  0 
 18 19  1  0  0  0  0 
 19 20  2  0  0  0  0 
 20 21  1  0  0  0  0 
  4  5  2  0  0  0  0 
 21 22  1  0  0  0  0 
  9 10  1  0  0  0  0 
 19 23  1  0  0  0  0 
 10 11  1  0  0  0  0 
 23 24  1  0  0  0  0 
 11  1  1  0  0  0  0 
 23 25  2  0  0  0  0 
  1  8  1  6  0  0  0 
 18 26  1  6  0  0  0 
 13  2  1  0  0  0  0 
 11 27  2  0  0  0  0 
 14 12  1  6  0  0  0 
 17 28  1  6  0  0  0 
 13 14  1  0  0  0  0 
 28 29  2  0  0  0  0 
  5  6  1  0  0  0  0 
 24 30  1  0  0  0  0 
M  END
>  <MOLREGNO>
467643

>  <CHEMBLID>
CHEMBL481358

>  <SYNONYMS>
Corynoxeine

>  <MAX_PHASE>
0

>  <MOLWEIGHT>
382.45

>  <ALOGP>
1.71

>  <PSA>
67.87

>  <HBA>
5

>  <HBD>
1

>  <RO5>
0

>  <RTB>
5

>  <RO3>
N

>  <ACD_MOST_APKA>
13.54

>  <ACD_MOST_BPKA>
8.03

>  <ACD_LOGP>
.99

>  <ACD_LOGD>
.27

>  <AROMATIC_RINGS>
1

>  <HEAVY_ATOMS>
28

>  <QED_WEIGHTED>
.36

>  <HBA_LIPINSKI>
6

>  <HBD_LIPINSKI>
1

>  <NUM_LIPINSKI_RO5_VIOLATIONS>
0

>  <MW_MONOISOTOPIC>
382.1893

>  <MOLECULAR_SPECIES>
NEUTRAL

>  <FULL_MOLFORMULA>
C22H26N2O4

$$$$

  CDK    9/16/09,9:48

 30 33  0  0  0  0  0  0  0  0999 V2000
    9.2962  -16.8041    0.0000 C   0  0  0  0  0  0  0  0  0  0  0  0
    9.3341  -15.4697    0.0000 C   0  0  0  0  0  0  0  0  0  0  0  0
    8.8305  -16.1231    0.0000 C   0  0  0  0  0  0  0  0  0  0  0  0
    7.0777  -17.0708    0.0000 C   0  0  0  0  0  0  0  0  0  0  0  0
    7.0766  -17.8982    0.0000 C   0  0  0  0  0  0  0  0  0  0  0  0
    7.7914  -18.3110    0.0000 C   0  0  0  0  0  0  0  0  0  0  0  0
    7.7896  -16.6580    0.0000 C   0  0  0  0  0  0  0  0  0  0  0  0
    8.5050  -17.0672    0.0000 C   0  0  0  0  0  0  0  0  0  0  0  0
    8.5099  -17.8982    0.0000 C   0  0  0  0  0  0  0  0  0  0  0  0
    9.3017  -18.1504    0.0000 N   0  0  0  0  0  0  0  0  0  0  0  0
    9.7863  -17.4752    0.0000 C   0  0  0  0  0  0  0  0  0  0  0  0
    9.4804  -15.9986    0.0000 H   0  0  0  0  0  0  0  0  0  0  0  0
   10.1100  -15.7436    0.0000 N   0  0  0  0  0  0  0  0  0  0  0  0
   10.0873  -16.5715    0.0000 C   0  0  0  0  0  0  0  0  0  0  0  0
   10.7891  -17.0027    0.0000 C   0  0  0  0  0  0  0  0  0  0  0  0
   10.8344  -15.3470    0.0000 C   0  0  0  0  0  0  0  0  0  0  0  0
   11.5406  -15.7828    0.0000 C   0  0  0  0  0  0  0  0  0  0  0  0
   11.5145  -16.6071    0.0000 C   0  0  0  0  0  0  0  0  0  0  0  0
   12.2115  -17.0394    0.0000 C   0  0  0  0  0  0  0  0  0  0  0  0
   12.9389  -16.6521    0.0000 C   0  0  0  0  0  0  0  0  0  0  0  0
   12.9649  -15.8278    0.0000 O   0  0  0  0  0  0  0  0  0  0  0  0
   13.6921  -15.4381    0.0000 C   0  0  0  0  0  0  0  0  0  0  0  0
   12.1843  -17.8639    0.0000 C   0  0  0  0  0  0  0  0  0  0  0  0
   11.4567  -18.2527    0.0000 O   0  0  0  0  0  0  0  0  0  0  0  0
   12.8848  -18.2997    0.0000 O   0  0  0  0  0  0  0  0  0  0  0  0
   11.3138  -17.4056    0.0000 H   0  0  0  0  0  0  0  0  0  0  0  0
   10.6113  -17.4718    0.0000 O   0  0  0  0  0  0  0  0  0  0  0  0
   12.2673  -15.3923    0.0000 C   0  0  0  0  0  0  0  0  0  0  0  0
   12.2625  -14.5667    0.0000 C   0  0  0  0  0  0  0  0  0  0  0  0
   11.4295  -19.0772    0.0000 C   0  0  0  0  0  0  0  0  0  0  0  0
  6  9  2  0  0  0  0 
  2  3  1  0  0  0  0 
  8  7  2  0  0  0  0 
 13 16  1  0  0  0  0 
 14 15  1  0  0  0  0 
 15 18  1  0  0  0  0 
 17 16  1  0  0  0  0 
 17 18  1  0  0  0  0 
  7  4  1  0  0  0  0 
  8  9  1  0  0  0  0 
  3  1  1  0  0  0  0 
  1 14  1  0  0  0  0 
 18 19  1  0  0  0  0 
 19 20  2  0  0  0  0 
 20 21  1  0  0  0  0 
  4  5  2  0  0  0  0 
 21 22  1  0  0  0  0 
  9 10  1  0  0  0  0 
 19 23  1  0  0  0  0 
 10 11  1  0  0  0  0 
 23 24  1  0  0  0  0 
 11  1  1  0  0  0  0 
 23 25  2  0  0  0  0 
  1  8  1  1  0  0  0 
 18 26  1  6  0  0  0 
 13  2  1  0  0  0  0 
 11 27  2  0  0  0  0 
 14 12  1  6  0  0  0 
 17 28  1  6  0  0  0 
 13 14  1  0  0  0  0 
 28 29  2  0  0  0  0 
  5  6  1  0  0  0  0 
 24 30  1  0  0  0  0 
M  END
>  <MOLREGNO>
467644

>  <CHEMBLID>
CHEMBL481359

>  <SYNONYMS>
Isocorynoxeine

>  <MAX_PHASE>
0

>  <MOLWEIGHT>
382.45

>  <ALOGP>
1.71

>  <PSA>
67.87

>  <HBA>
5

>  <HBD>
1

>  <RO5>
0

>  <RTB>
5

>  <RO3>
N

>  <ACD_MOST_APKA>
13.54

>  <ACD_MOST_BPKA>
8.03

>  <ACD_LOGP>
.99

>  <ACD_LOGD>
.27

>  <AROMATIC_RINGS>
1

>  <HEAVY_ATOMS>
28

>  <QED_WEIGHTED>
.36

>  <HBA_LIPINSKI>
6

>  <HBD_LIPINSKI>
1

>  <NUM_LIPINSKI_RO5_VIOLATIONS>
0

>  <MW_MONOISOTOPIC>
382.1893

>  <MOLECULAR_SPECIES>
NEUTRAL

>  <FULL_MOLFORMULA>
C22H26N2O4

$$$$

  SciTegic11201309402D

 27 29  0  0  0  0            999 V2000
   12.8965   -3.3485    0.0000 C   0  0
   12.8815   -2.0144    0.0000 C   0  0  2  0  0  0
   12.4036   -2.6869    0.0000 C   0  0
   13.6664   -2.2612    0.0000 C   0  0  2  0  0  0
   13.6756   -3.0843    0.0000 N   0  0
   14.4603   -3.3310    0.0000 C   0  0
   14.9384   -2.6585    0.0000 C   0  0
   14.4454   -1.9970    0.0000 C   0  0
   14.4824   -2.8392    0.0000 H   0  0
   14.5341   -1.1778    0.0000 C   0  0
   15.2813   -0.8472    0.0000 O   0  0
   12.6196   -1.2311    0.0000 O   0  0
   11.9103   -0.8082    0.0000 C   0  0
   11.1937   -1.2088    0.0000 O   0  0
   11.9230    0.0148    0.0000 C   0  0
   11.2144    0.4373    0.0000 C   0  0
   12.6443    0.4154    0.0000 C   0  0
   13.3483   -0.0071    0.0000 C   0  0  2  0  0  0
   14.0696    0.3936    0.0000 C   0  0  1  0  0  0
   15.3305   -0.0246    0.0000 C   0  0
   16.0642    0.3484    0.0000 O   0  0
   13.3357   -0.8301    0.0000 C   0  0
   14.6487    0.9869    0.0000 C   0  0
   13.6525    1.1132    0.0000 O   0  0
   11.2270    1.2603    0.0000 C   0  0
   14.4290    1.7796    0.0000 O   0  0
   11.8924   -1.8674    0.0000 H   0  0
  2  3  1  0
 12 13  1  0
  3  1  1  0
 13 14  2  0
  5  6  1  0
 13 15  1  0
  6  7  1  0
 15 16  2  0
  7  8  2  0
 15 17  1  0
  8  4  1  0
 17 18  1  0
  4  5  1  0
 18 19  1  0
  4  9  1  6
 11 20  1  0
  1  5  1  0
 20 21  2  0
 19 20  1  0
  8 10  1  0
 18 22  1  6
 19 23  1  0
 10 11  1  0
 19 24  1  1
  4  2  1  0
 16 25  1  0
  2 12  1  0
 23 26  1  0
  2 27  1  6
M  END
>  <MOLREGNO>
446018

>  <CHEMBLID>
CHEMBL520570

>  <SYNONYMS>
Retrorsine

>  <MAX_PHASE>
0

>  <MOLWEIGHT>
351.39

>  <ALOGP>
.92

>  <PSA>
96.3

>  <HBA>
7

>  <HBD>
2

>  <RO5>
0

>  <RTB>
1

>  <RO3>
N

>  <ACD_MOST_APKA>
12

>  <ACD_MOST_BPKA>
5.79

>  <ACD_LOGP>
-2.51

>  <ACD_LOGD>
-2.52

>  <AROMATIC_RINGS>
0

>  <HEAVY_ATOMS>
25

>  <QED_WEIGHTED>
.41

>  <HBA_LIPINSKI>
7

>  <HBD_LIPINSKI>
2

>  <NUM_LIPINSKI_RO5_VIOLATIONS>
0

>  <MW_MONOISOTOPIC>
351.1682

>  <MOLECULAR_SPECIES>
NEUTRAL

>  <FULL_MOLFORMULA>
C18H25NO6

$$$$

  CDK    9/16/09,9:20

 37 40  0  0  0  0  0  0  0  0999 V2000
    1.8954  -13.0708    0.0000 C   0  0  0  0  0  0  0  0  0  0  0  0
    2.6074  -12.6625    0.0000 O   0  0  0  0  0  0  0  0  0  0  0  0
    2.6074  -11.8375    0.0000 C   0  0  0  0  0  0  0  0  0  0  0  0
    1.8954  -11.4208    0.0000 C   0  0  0  0  0  0  0  0  0  0  0  0
    1.1833  -12.6625    0.0000 C   0  0  0  0  0  0  0  0  0  0  0  0
    1.1834  -11.8375    0.0000 C   0  0  0  0  0  0  0  0  0  0  0  0
    0.3988  -11.5825    0.0000 C   0  0  0  0  0  0  0  0  0  0  0  0
   -0.0862  -12.2500    0.0000 C   0  0  0  0  0  0  0  0  0  0  0  0
    0.3987  -12.9173    0.0000 C   0  0  0  0  0  0  0  0  0  0  0  0
    1.1792  -11.0125    0.0000 O   0  0  0  0  0  0  0  0  0  0  0  0
    1.1792  -13.4875    0.0000 H   0  0  0  0  0  0  0  0  0  0  0  0
    1.8954  -13.8958    0.0000 O   0  0  0  0  0  0  0  0  0  0  0  0
    0.1439  -10.7979    0.0000 O   0  0  0  0  0  0  0  0  0  0  0  0
   -0.3208  -13.3250    0.0000 O   0  0  0  0  0  0  0  0  0  0  0  0
   -1.0319  -12.9067    0.0000 C   0  0  0  0  0  0  0  0  0  0  0  0
   -1.7497  -13.3134    0.0000 C   0  0  0  0  0  0  0  0  0  0  0  0
   -2.4608  -12.8951    0.0000 C   0  0  0  0  0  0  0  0  0  0  0  0
   -3.1786  -13.3018    0.0000 C   0  0  0  0  0  0  0  0  0  0  0  0
   -3.8874  -12.8810    0.0000 C   0  0  0  0  0  0  0  0  0  0  0  0
   -4.6047  -13.2870    0.0000 C   0  0  0  0  0  0  0  0  0  0  0  0
   -4.6119  -14.1128    0.0000 C   0  0  0  0  0  0  0  0  0  0  0  0
   -3.8958  -14.5310    0.0000 C   0  0  0  0  0  0  0  0  0  0  0  0
   -3.1814  -14.1226    0.0000 C   0  0  0  0  0  0  0  0  0  0  0  0
   -1.0252  -12.0817    0.0000 O   0  0  0  0  0  0  0  0  0  0  0  0
    0.6083  -13.7125    0.0000 C   0  0  0  0  0  0  0  0  0  0  0  0
    2.6098  -14.3083    0.0000 C   0  0  0  0  0  0  0  0  0  0  0  0
    2.6062  -15.1343    0.0000 C   0  0  0  0  0  0  0  0  0  0  0  0
    3.3166  -15.5467    0.0000 C   0  0  0  0  0  0  0  0  0  0  0  0
    4.0335  -15.1377    0.0000 C   0  0  0  0  0  0  0  0  0  0  0  0
    4.0355  -14.3118    0.0000 C   0  0  0  0  0  0  0  0  0  0  0  0
    3.3205  -13.8948    0.0000 O   0  0  0  0  0  0  0  0  0  0  0  0
    2.6042  -13.4833    0.0000 H   0  0  0  0  0  0  0  0  0  0  0  0
    4.7513  -13.9017    0.0000 C   0  0  0  0  0  0  0  0  0  0  0  0
    5.4644  -14.3166    0.0000 O   0  0  0  0  0  0  0  0  0  0  0  0
    4.7464  -15.5529    0.0000 O   0  0  0  0  0  0  0  0  0  0  0  0
    1.8903  -15.5444    0.0000 O   0  0  0  0  0  0  0  0  0  0  0  0
    3.3135  -16.3717    0.0000 O   0  0  0  0  0  0  0  0  0  0  0  0
 17 18  1  0  0  0  0 
  8  9  1  0  0  0  0 
 18 19  2  0  0  0  0 
  9  5  1  0  0  0  0 
 19 20  1  0  0  0  0 
  3  4  2  0  0  0  0 
 20 21  2  0  0  0  0 
  6 10  1  1  0  0  0 
 21 22  1  0  0  0  0 
  5  6  1  0  0  0  0 
 22 23  2  0  0  0  0 
 23 18  1  0  0  0  0 
  5 11  1  1  0  0  0 
 15 24  2  0  0  0  0 
  9 25  1  0  0  0  0 
  1 12  1  1  0  0  0 
 12 26  1  0  0  0  0 
 26 27  1  0  0  0  0 
  6  4  1  0  0  0  0 
  7 13  1  1  0  0  0 
  5  1  1  0  0  0  0 
  9 14  1  1  0  0  0 
  1  2  1  0  0  0  0 
 26 31  1  0  0  0  0 
 27 28  1  0  0  0  0 
 28 29  1  0  0  0  0 
 29 30  1  0  0  0  0 
 30 31  1  0  0  0  0 
 14 15  1  0  0  0  0 
 26 32  1  1  0  0  0 
  2  3  1  0  0  0  0 
 30 33  1  6  0  0  0 
 15 16  1  0  0  0  0 
 33 34  1  0  0  0  0 
  6  7  1  0  0  0  0 
 29 35  1  1  0  0  0 
 16 17  2  0  0  0  0 
 27 36  1  1  0  0  0 
  7  8  1  0  0  0  0 
 28 37  1  6  0  0  0 
M  END
>  <MOLREGNO>
465326

>  <CHEMBLID>
CHEMBL516702

>  <SYNONYMS>
Harpagoside | E-Harpagoside

>  <MAX_PHASE>
0

>  <MOLWEIGHT>
494.49

>  <ALOGP>
-1.39

>  <PSA>
175.36

>  <HBA>
11

>  <HBD>
6

>  <RO5>
2

>  <RTB>
7

>  <RO3>
N

>  <ACD_MOST_APKA>
11.7

>  <ACD_MOST_BPKA>


>  <ACD_LOGP>
-1.59

>  <ACD_LOGD>
-1.59

>  <AROMATIC_RINGS>
1

>  <HEAVY_ATOMS>
35

>  <QED_WEIGHTED>
.19

>  <HBA_LIPINSKI>
11

>  <HBD_LIPINSKI>
6

>  <NUM_LIPINSKI_RO5_VIOLATIONS>
2

>  <MW_MONOISOTOPIC>
494.1788

>  <MOLECULAR_SPECIES>
NEUTRAL

>  <FULL_MOLFORMULA>
C24H30O11

$$$$

  CDK    9/16/09,9:20

 18 20  0  0  0  0  0  0  0  0999 V2000
    0.9708    1.2125    0.0000 C   0  0  0  0  0  0  0  0  0  0  0  0
    0.9708    0.3875    0.0000 C   0  0  0  0  0  0  0  0  0  0  0  0
    1.6829   -0.0208    0.0000 C   0  0  0  0  0  0  0  0  0  0  0  0
    1.6829    1.6292    0.0000 C   0  0  0  0  0  0  0  0  0  0  0  0
    2.3949    1.2125    0.0000 C   0  0  0  0  0  0  0  0  0  0  0  0
    2.3959    0.3875    0.0000 C   0  0  0  0  0  0  0  0  0  0  0  0
    3.1070   -0.0218    0.0000 C   0  0  0  0  0  0  0  0  0  0  0  0
    3.1049    1.6282    0.0000 C   0  0  0  0  0  0  0  0  0  0  0  0
    3.8205    1.2143    0.0000 C   0  0  0  0  0  0  0  0  0  0  0  0
    3.8241    0.3855    0.0000 C   0  0  0  0  0  0  0  0  0  0  0  0
    4.6135    0.1328    0.0000 O   0  0  0  0  0  0  0  0  0  0  0  0
    5.0977    0.8055    0.0000 C   0  0  0  0  0  0  0  0  0  0  0  0
    4.6076    1.4738    0.0000 C   0  0  0  0  0  0  0  0  0  0  0  0
    4.8591    2.2595    0.0000 C   0  0  0  0  0  0  0  0  0  0  0  0
    2.3917   -0.4333    0.0000 C   0  0  0  0  0  0  0  0  0  0  0  0
    2.3875    2.0375    0.0000 H   0  0  0  0  0  0  0  0  0  0  0  0
    1.6829    2.4542    0.0000 C   0  0  0  0  0  0  0  0  0  0  0  0
    5.9227    0.8091    0.0000 O   0  0  0  0  0  0  0  0  0  0  0  0
  9  8  1  0  0  0  0 
  9 10  1  0  0  0  0 
  3  6  1  0  0  0  0 
  5  4  1  0  0  0  0 
  5  6  1  0  0  0  0 
  1  2  1  0  0  0  0 
 10 11  1  0  0  0  0 
 11 12  1  0  0  0  0 
 12 13  1  0  0  0  0 
 13  9  2  0  0  0  0 
  1  4  1  0  0  0  0 
 13 14  1  0  0  0  0 
  2  3  1  0  0  0  0 
  6 15  1  6  0  0  0 
  5  8  1  0  0  0  0 
  5 16  1  1  0  0  0 
  6  7  1  0  0  0  0 
  4 17  2  0  0  0  0 
  7 10  2  0  0  0  0 
 12 18  2  0  0  0  0 
M  END
>  <MOLREGNO>
443895

>  <CHEMBLID>
CHEMBL449520

>  <SYNONYMS>
Atractylenolide I

>  <MAX_PHASE>
0

>  <MOLWEIGHT>
230.3

>  <ALOGP>
3.32

>  <PSA>
26.3

>  <HBA>
2

>  <HBD>
0

>  <RO5>
0

>  <RTB>
0

>  <RO3>
N

>  <ACD_MOST_APKA>


>  <ACD_MOST_BPKA>


>  <ACD_LOGP>
2.41

>  <ACD_LOGD>
2.41

>  <AROMATIC_RINGS>
0

>  <HEAVY_ATOMS>
17

>  <QED_WEIGHTED>
.47

>  <HBA_LIPINSKI>
2

>  <HBD_LIPINSKI>
0

>  <NUM_LIPINSKI_RO5_VIOLATIONS>
0

>  <MW_MONOISOTOPIC>
230.1307

>  <MOLECULAR_SPECIES>


>  <FULL_MOLFORMULA>
C15H18O2

$$$$

  CDK    9/16/09,9:20

 19 21  0  0  0  0  0  0  0  0999 V2000
    7.4247    1.1388    0.0000 C   0  0  0  0  0  0  0  0  0  0  0  0
    7.4247    0.3138    0.0000 C   0  0  0  0  0  0  0  0  0  0  0  0
    8.1378   -0.0934    0.0000 C   0  0  0  0  0  0  0  0  0  0  0  0
    8.1378    1.5566    0.0000 C   0  0  0  0  0  0  0  0  0  0  0  0
    8.8508    1.1388    0.0000 C   0  0  0  0  0  0  0  0  0  0  0  0
    8.8523    0.3139    0.0000 C   0  0  0  0  0  0  0  0  0  0  0  0
    9.5639   -0.0949    0.0000 C   0  0  0  0  0  0  0  0  0  0  0  0
    9.5607    1.5551    0.0000 C   0  0  0  0  0  0  0  0  0  0  0  0
   10.2729    1.1416    0.0000 C   0  0  0  0  0  0  0  0  0  0  0  0
   10.2783    0.3109    0.0000 C   0  0  0  0  0  0  0  0  0  0  0  0
   11.0663    0.0591    0.0000 O   0  0  0  0  0  0  0  0  0  0  0  0
   11.5526    0.7336    0.0000 C   0  0  0  0  0  0  0  0  0  0  0  0
   11.0616    1.4016    0.0000 C   0  0  0  0  0  0  0  0  0  0  0  0
   11.3137    2.1882    0.0000 C   0  0  0  0  0  0  0  0  0  0  0  0
    8.8459   -0.5090    0.0000 C   0  0  0  0  0  0  0  0  0  0  0  0
    8.8438    1.9639    0.0000 H   0  0  0  0  0  0  0  0  0  0  0  0
    8.1378    2.3816    0.0000 C   0  0  0  0  0  0  0  0  0  0  0  0
   12.3776    0.7349    0.0000 O   0  0  0  0  0  0  0  0  0  0  0  0
   10.4875   -0.4838    0.0000 H   0  0  0  0  0  0  0  0  0  0  0  0
  1  2  1  0  0  0  0 
  1  4  1  0  0  0  0 
  2  3  1  0  0  0  0 
  3  6  1  0  0  0  0 
  5  4  1  0  0  0  0 
  5  6  1  0  0  0  0 
  5  8  1  0  0  0  0 
  6  7  1  0  0  0  0 
  7 10  1  0  0  0  0 
  9  8  1  0  0  0  0 
  9 10  1  0  0  0  0 
 10 11  1  0  0  0  0 
 11 12  1  0  0  0  0 
 12 13  1  0  0  0  0 
 13  9  2  0  0  0  0 
 13 14  1  0  0  0  0 
  6 15  1  6  0  0  0 
  5 16  1  1  0  0  0 
  4 17  2  0  0  0  0 
 12 18  2  0  0  0  0 
 10 19  1  6  0  0  0 
M  END
>  <MOLREGNO>
443917

>  <CHEMBLID>
CHEMBL485805

>  <SYNONYMS>
Atractylenolide II

>  <MAX_PHASE>
0

>  <MOLWEIGHT>
232.32

>  <ALOGP>
3.57

>  <PSA>
26.3

>  <HBA>
2

>  <HBD>
0

>  <RO5>
0

>  <RTB>
0

>  <RO3>
N

>  <ACD_MOST_APKA>


>  <ACD_MOST_BPKA>


>  <ACD_LOGP>
2.47

>  <ACD_LOGD>
2.47

>  <AROMATIC_RINGS>
0

>  <HEAVY_ATOMS>
17

>  <QED_WEIGHTED>
.47

>  <HBA_LIPINSKI>
2

>  <HBD_LIPINSKI>
0

>  <NUM_LIPINSKI_RO5_VIOLATIONS>
0

>  <MW_MONOISOTOPIC>
232.1463

>  <MOLECULAR_SPECIES>


>  <FULL_MOLFORMULA>
C15H20O2

$$$$

  CDK    9/16/09,9:20

 19 21  0  0  0  0  0  0  0  0999 V2000
   13.3583    1.5390    0.0000 C   0  0  0  0  0  0  0  0  0  0  0  0
   13.3583    0.7140    0.0000 C   0  0  0  0  0  0  0  0  0  0  0  0
   14.0712    0.3098    0.0000 C   0  0  0  0  0  0  0  0  0  0  0  0
   14.0712    1.9558    0.0000 C   0  0  0  0  0  0  0  0  0  0  0  0
   14.7797    1.5390    0.0000 C   0  0  0  0  0  0  0  0  0  0  0  0
   14.7813    0.7140    0.0000 C   0  0  0  0  0  0  0  0  0  0  0  0
   15.4926    0.3083    0.0000 C   0  0  0  0  0  0  0  0  0  0  0  0
   15.4894    1.9543    0.0000 C   0  0  0  0  0  0  0  0  0  0  0  0
   16.2035    1.5417    0.0000 C   0  0  0  0  0  0  0  0  0  0  0  0
   16.2089    0.7151    0.0000 C   0  0  0  0  0  0  0  0  0  0  0  0
   16.9969    0.4626    0.0000 O   0  0  0  0  0  0  0  0  0  0  0  0
   17.4782    1.1327    0.0000 C   0  0  0  0  0  0  0  0  0  0  0  0
   16.9881    1.8003    0.0000 C   0  0  0  0  0  0  0  0  0  0  0  0
   17.2428    2.5868    0.0000 C   0  0  0  0  0  0  0  0  0  0  0  0
   14.7791   -0.1049    0.0000 C   0  0  0  0  0  0  0  0  0  0  0  0
   14.7728    2.3641    0.0000 H   0  0  0  0  0  0  0  0  0  0  0  0
   14.0712    2.7808    0.0000 C   0  0  0  0  0  0  0  0  0  0  0  0
   18.3033    1.1381    0.0000 O   0  0  0  0  0  0  0  0  0  0  0  0
   16.4166   -0.0796    0.0000 O   0  0  0  0  0  0  0  0  0  0  0  0
  1  2  1  0  0  0  0 
  1  4  1  0  0  0  0 
  2  3  1  0  0  0  0 
  3  6  1  0  0  0  0 
  5  4  1  0  0  0  0 
  5  6  1  0  0  0  0 
  5  8  1  0  0  0  0 
  6  7  1  0  0  0  0 
  7 10  1  0  0  0  0 
  9  8  1  0  0  0  0 
  9 10  1  0  0  0  0 
 10 11  1  0  0  0  0 
 11 12  1  0  0  0  0 
 12 13  1  0  0  0  0 
 13  9  2  0  0  0  0 
 13 14  1  0  0  0  0 
  6 15  1  6  0  0  0 
  5 16  1  1  0  0  0 
  4 17  2  0  0  0  0 
 12 18  2  0  0  0  0 
 10 19  1  6  0  0  0 
M  END
>  <MOLREGNO>
443914

>  <CHEMBLID>
CHEMBL486961

>  <SYNONYMS>
Atractylenolide Iii

>  <MAX_PHASE>
0

>  <MOLWEIGHT>
248.32

>  <ALOGP>
2.92

>  <PSA>
46.53

>  <HBA>
3

>  <HBD>
1

>  <RO5>
0

>  <RTB>
0

>  <RO3>
Y

>  <ACD_MOST_APKA>
10.73

>  <ACD_MOST_BPKA>


>  <ACD_LOGP>
.77

>  <ACD_LOGD>
.77

>  <AROMATIC_RINGS>
0

>  <HEAVY_ATOMS>
18

>  <QED_WEIGHTED>
.53

>  <HBA_LIPINSKI>
3

>  <HBD_LIPINSKI>
1

>  <NUM_LIPINSKI_RO5_VIOLATIONS>
0

>  <MW_MONOISOTOPIC>
248.1412

>  <MOLECULAR_SPECIES>
NEUTRAL

>  <FULL_MOLFORMULA>
C15H20O3

$$$$

  SciTegic12231509382D

 26 29  0  0  1  0            999 V2000
    4.4292   -0.7750    0.0000 C   0  0
    3.7250   -1.1917    0.0000 C   0  0
    5.1542   -1.1917    0.0000 C   0  0  1  0  0  0
    3.7250   -2.0167    0.0000 C   0  0
    5.8875   -0.7750    0.0000 N   0  3
    4.4292   -2.4375    0.0000 C   0  0
    4.4292    0.0625    0.0000 C   0  0
    5.1542   -2.0167    0.0000 C   0  0
    3.0000   -0.7750    0.0000 C   0  0
    3.0042   -2.4292    0.0000 C   0  0
    3.0000    0.0583    0.0000 C   0  0
    3.7167    0.4833    0.0000 C   0  0
    5.8875    0.0625    0.0000 C   0  0
    3.0000   -3.2500    0.0000 C   0  0
    5.1625    0.4875    0.0000 C   0  0
    4.4292   -3.2500    0.0000 C   0  0
    3.7250   -3.6667    0.0000 C   0  0
    2.2792   -1.1917    0.0000 O   0  0
    2.2875   -2.0042    0.0000 O   0  0
    2.2875    0.4708    0.0000 O   0  0
    6.6042   -1.1917    0.0000 C   0  0
    6.6917   -0.5500    0.0000 C   0  0
    2.2875   -3.6667    0.0000 O   0  0
    1.5750    0.0583    0.0000 C   0  0
    2.2875   -4.4917    0.0000 C   0  0
    5.8667   -1.6042    0.0000 H   0  0
  2  1  2  0
  3  1  1  0
  4  2  1  0
  5  3  1  0
  6  8  1  0
  7  1  1  0
  8  3  1  0
  9  2  1  0
 10  4  1  0
 11 12  1  0
 12  7  2  0
 13 15  1  0
 14 10  2  0
 15  7  1  0
 16  6  1  0
 17 16  2  0
 18  9  1  0
 19 10  1  0
 20 11  1  0
 21  5  1  0
 22  5  1  0
 23 14  1  0
 24 20  1  0
 25 23  1  0
  3 26  1  6
 13  5  1  0
 11  9  2  0
  4  6  2  0
 17 14  1  0
M  CHG  1   5   1
M  END
>  <MOLREGNO>
399568

>  <CHEMBLID>
CHEMBL235428

>  <SYNONYMS>
Magnoflorine Iodide | Magnoflorine | Magnoflorine Chloride

>  <MAX_PHASE>
0

>  <MOLWEIGHT>
342.41

>  <ALOGP>
1.73

>  <PSA>
58.92

>  <HBA>
4

>  <HBD>
2

>  <RO5>
0

>  <RTB>
2

>  <RO3>
N

>  <ACD_MOST_APKA>
13.62

>  <ACD_MOST_BPKA>
6.28

>  <ACD_LOGP>
2.81

>  <ACD_LOGD>
2.78

>  <AROMATIC_RINGS>
2

>  <HEAVY_ATOMS>
25

>  <QED_WEIGHTED>
.82

>  <HBA_LIPINSKI>
5

>  <HBD_LIPINSKI>
2

>  <NUM_LIPINSKI_RO5_VIOLATIONS>
0

>  <MW_MONOISOTOPIC>
342.1705

>  <MOLECULAR_SPECIES>
NEUTRAL

>  <FULL_MOLFORMULA>
C20H24NO4

$$$$

  CDK    9/16/09,9:20

 40 43  0  0  0  0  0  0  0  0999 V2000
   -2.9378   -1.0084    0.0000 C   0  0  0  0  0  0  0  0  0  0  0  0
   -2.9378   -1.8335    0.0000 C   0  0  0  0  0  0  0  0  0  0  0  0
   -2.2257   -2.2419    0.0000 C   0  0  0  0  0  0  0  0  0  0  0  0
   -2.2257   -0.5918    0.0000 C   0  0  0  0  0  0  0  0  0  0  0  0
   -1.5136   -1.0084    0.0000 C   0  0  0  0  0  0  0  0  0  0  0  0
   -1.5171   -1.8335    0.0000 C   0  0  0  0  0  0  0  0  0  0  0  0
   -0.8083   -2.2468    0.0000 C   0  0  0  0  0  0  0  0  0  0  0  0
   -0.0914   -1.8396    0.0000 C   0  0  0  0  0  0  0  0  0  0  0  0
   -0.8013   -0.5967    0.0000 C   0  0  0  0  0  0  0  0  0  0  0  0
   -0.0918   -1.0170    0.0000 C   0  0  0  0  0  0  0  0  0  0  0  0
   -0.0749    0.6294    0.0000 C   0  0  0  0  0  0  0  0  0  0  0  0
   -0.7960    0.2257    0.0000 C   0  0  0  0  0  0  0  0  0  0  0  0
    0.6346    0.2090    0.0000 C   0  0  0  0  0  0  0  0  0  0  0  0
    0.6257   -0.6127    0.0000 C   0  0  0  0  0  0  0  0  0  0  0  0
    1.4043   -0.8751    0.0000 C   0  0  0  0  0  0  0  0  0  0  0  0
    1.8946   -0.2155    0.0000 C   0  0  0  0  0  0  0  0  0  0  0  0
    1.4187    0.4543    0.0000 C   0  0  0  0  0  0  0  0  0  0  0  0
   -2.6460   -2.9545    0.0000 C   0  0  0  0  0  0  0  0  0  0  0  0
   -1.8210   -2.9545    0.0000 C   0  0  0  0  0  0  0  0  0  0  0  0
   -3.6517   -2.2471    0.0000 O   0  0  0  0  0  0  0  0  0  0  0  0
   -4.3668   -1.8356    0.0000 C   0  0  0  0  0  0  0  0  0  0  0  0
   -5.0808   -2.2491    0.0000 C   0  0  0  0  0  0  0  0  0  0  0  0
   -4.3680   -1.0105    0.0000 O   0  0  0  0  0  0  0  0  0  0  0  0
    0.6293    1.0376    0.0000 C   0  0  0  0  0  0  0  0  0  0  0  0
    0.6209   -1.4376    0.0000 C   0  0  0  0  0  0  0  0  0  0  0  0
    2.7196   -0.2245    0.0000 O   0  0  0  0  0  0  0  0  0  0  0  0
    1.6823    1.2362    0.0000 C   0  0  0  0  0  0  0  0  0  0  0  0
    2.4911    1.3990    0.0000 C   0  0  0  0  0  0  0  0  0  0  0  0
    1.1368    1.8554    0.0000 C   0  0  0  0  0  0  0  0  0  0  0  0
    1.3979    2.6392    0.0000 O   0  0  0  0  0  0  0  0  0  0  0  0
    0.3255    1.6947    0.0000 O   0  0  0  0  0  0  0  0  0  0  0  0
    3.0365    0.7799    0.0000 C   0  0  0  0  0  0  0  0  0  0  0  0
    3.8454    0.9427    0.0000 C   0  0  0  0  0  0  0  0  0  0  0  0
    4.3907    0.3235    0.0000 C   0  0  0  0  0  0  0  0  0  0  0  0
    4.1088    1.7246    0.0000 C   0  0  0  0  0  0  0  0  0  0  0  0
    4.1273   -0.4583    0.0000 C   0  0  0  0  0  0  0  0  0  0  0  0
    5.1996    0.4863    0.0000 C   0  0  0  0  0  0  0  0  0  0  0  0
   -1.5209   -0.1833    0.0000 C   0  0  0  0  0  0  0  0  0  0  0  0
   -1.5251   -2.6544    0.0000 H   0  0  0  0  0  0  0  0  0  0  0  0
    2.2419    0.4583    0.0000 H   0  0  0  0  0  0  0  0  0  0  0  0
  8 10  1  0  0  0  0 
  3 19  1  0  0  0  0 
  9 10  2  0  0  0  0 
  2 20  1  1  0  0  0 
  3  6  1  0  0  0  0 
 20 21  1  0  0  0  0 
  5  4  1  0  0  0  0 
 21 22  1  0  0  0  0 
  5  6  1  0  0  0  0 
 21 23  2  0  0  0  0 
 13 24  1  1  0  0  0 
  9 12  1  0  0  0  0 
 14 25  1  6  0  0  0 
 10 14  1  0  0  0  0 
 16 26  1  6  0  0  0 
 13 11  1  0  0  0  0 
 17 27  1  0  0  0  0 
 11 12  1  0  0  0  0 
 27 28  1  0  0  0  0 
 13 14  1  0  0  0  0 
 27 29  1  6  0  0  0 
  1  2  1  0  0  0  0 
  1  4  1  0  0  0  0 
 29 30  1  0  0  0  0 
 29 31  2  0  0  0  0 
  2  3  1  0  0  0  0 
 28 32  1  0  0  0  0 
  5  9  1  0  0  0  0 
 32 33  1  0  0  0  0 
  6  7  1  0  0  0  0 
 33 34  1  0  0  0  0 
 14 15  1  0  0  0  0 
 33 35  2  0  0  0  0 
 15 16  1  0  0  0  0 
 34 36  1  0  0  0  0 
 16 17  1  0  0  0  0 
 34 37  1  0  0  0  0 
 17 13  1  0  0  0  0 
  5 38  1  1  0  0  0 
  7  8  1  0  0  0  0 
  6 39  1  6  0  0  0 
  3 18  1  0  0  0  0 
 17 40  1  6  0  0  0 
M  END
>  <MOLREGNO>
464209

>  <CHEMBLID>
CHEMBL468034

>  <SYNONYMS>
Pachymic Acid

>  <MAX_PHASE>
0

>  <MOLWEIGHT>
528.76

>  <ALOGP>
6.57

>  <PSA>
83.83

>  <HBA>
5

>  <HBD>
2

>  <RO5>
2

>  <RTB>
8

>  <RO3>
N

>  <ACD_MOST_APKA>
4.65

>  <ACD_MOST_BPKA>


>  <ACD_LOGP>
8.06

>  <ACD_LOGD>
5.27

>  <AROMATIC_RINGS>
0

>  <HEAVY_ATOMS>
38

>  <QED_WEIGHTED>
.28

>  <HBA_LIPINSKI>
5

>  <HBD_LIPINSKI>
2

>  <NUM_LIPINSKI_RO5_VIOLATIONS>
1

>  <MW_MONOISOTOPIC>
528.3815

>  <MOLECULAR_SPECIES>
ACID

>  <FULL_MOLFORMULA>
C33H52O5

$$$$

  CDK    9/16/09,9:20

 70 78  0  0  0  0  0  0  0  0999 V2000
   10.1261   -4.9234    0.0000 O   0  0  0  0  0  0  0  0  0  0  0  0
   10.5775   -5.6183    0.0000 C   0  0  0  0  0  0  0  0  0  0  0  0
   11.4006   -5.5751    0.0000 C   0  0  0  0  0  0  0  0  0  0  0  0
   11.8491   -6.2703    0.0000 C   0  0  0  0  0  0  0  0  0  0  0  0
   11.4729   -7.0086    0.0000 C   0  0  0  0  0  0  0  0  0  0  0  0
   10.6499   -7.0520    0.0000 C   0  0  0  0  0  0  0  0  0  0  0  0
   10.1984   -6.3571    0.0000 O   0  0  0  0  0  0  0  0  0  0  0  0
   10.2707   -7.7861    0.0000 C   0  0  0  0  0  0  0  0  0  0  0  0
    8.6871   -4.1272    0.0000 O   0  0  0  0  0  0  0  0  0  0  0  0
    7.9722   -3.7189    0.0000 C   0  0  0  0  0  0  0  0  0  0  0  0
    7.2602   -4.1320    0.0000 C   0  0  0  0  0  0  0  0  0  0  0  0
    6.5453   -3.7284    0.0000 C   0  0  0  0  0  0  0  0  0  0  0  0
    6.5424   -2.9071    0.0000 C   0  0  0  0  0  0  0  0  0  0  0  0
    7.2544   -2.4895    0.0000 C   0  0  0  0  0  0  0  0  0  0  0  0
    7.9693   -2.8977    0.0000 O   0  0  0  0  0  0  0  0  0  0  0  0
    7.2469   -1.6682    0.0000 C   0  0  0  0  0  0  0  0  0  0  0  0
   17.8945   -0.9670    0.0000 C   0  0  0  0  0  0  0  0  0  0  0  0
   18.6073   -1.3768    0.0000 C   0  0  0  0  0  0  0  0  0  0  0  0
   19.3119   -0.9753    0.0000 C   0  0  0  0  0  0  0  0  0  0  0  0
   19.3193   -0.1550    0.0000 C   0  0  0  0  0  0  0  0  0  0  0  0
   18.6064    0.2625    0.0000 C   0  0  0  0  0  0  0  0  0  0  0  0
   12.2468   -2.8455    0.0000 C   0  0  0  0  0  0  0  0  0  0  0  0
   12.2468   -3.6732    0.0000 C   0  0  0  0  0  0  0  0  0  0  0  0
   12.9633   -4.0860    0.0000 C   0  0  0  0  0  0  0  0  0  0  0  0
   12.9633   -2.4306    0.0000 C   0  0  0  0  0  0  0  0  0  0  0  0
   13.6803   -2.8455    0.0000 C   0  0  0  0  0  0  0  0  0  0  0  0
   13.6781   -3.6732    0.0000 C   0  0  0  0  0  0  0  0  0  0  0  0
   14.3897   -4.0868    0.0000 C   0  0  0  0  0  0  0  0  0  0  0  0
   15.1114   -3.6778    0.0000 C   0  0  0  0  0  0  0  0  0  0  0  0
   14.3971   -2.4315    0.0000 C   0  0  0  0  0  0  0  0  0  0  0  0
   15.1142   -2.8539    0.0000 C   0  0  0  0  0  0  0  0  0  0  0  0
   15.1273   -1.1936    0.0000 C   0  0  0  0  0  0  0  0  0  0  0  0
   14.3995   -1.6051    0.0000 C   0  0  0  0  0  0  0  0  0  0  0  0
   15.8370   -1.6190    0.0000 C   0  0  0  0  0  0  0  0  0  0  0  0
   15.8268   -2.4407    0.0000 C   0  0  0  0  0  0  0  0  0  0  0  0
   16.6091   -2.7046    0.0000 C   0  0  0  0  0  0  0  0  0  0  0  0
   16.6283   -1.3701    0.0000 C   0  0  0  0  0  0  0  0  0  0  0  0
   17.1083   -2.0424    0.0000 C   0  0  0  0  0  0  0  0  0  0  0  0
   17.8920   -1.7951    0.0000 O   0  0  0  0  0  0  0  0  0  0  0  0
   17.1169   -0.7097    0.0000 C   0  0  0  0  0  0  0  0  0  0  0  0
   11.5345   -4.0801    0.0000 O   0  0  0  0  0  0  0  0  0  0  0  0
   13.6700   -2.0183    0.0000 C   0  0  0  0  0  0  0  0  0  0  0  0
   15.1058   -2.0264    0.0000 H   0  0  0  0  0  0  0  0  0  0  0  0
   15.8298   -0.7945    0.0000 C   0  0  0  0  0  0  0  0  0  0  0  0
   16.8699    0.0774    0.0000 C   0  0  0  0  0  0  0  0  0  0  0  0
   14.3930   -3.2502    0.0000 H   0  0  0  0  0  0  0  0  0  0  0  0
   15.8167   -3.2639    0.0000 H   0  0  0  0  0  0  0  0  0  0  0  0
   17.6027   -2.7034    0.0000 H   0  0  0  0  0  0  0  0  0  0  0  0
   16.2376   -0.6424    0.0000 H   0  0  0  0  0  0  0  0  0  0  0  0
   20.0347    0.2533    0.0000 C   0  0  0  0  0  0  0  0  0  0  0  0
   10.8166   -3.6806    0.0000 C   0  0  0  0  0  0  0  0  0  0  0  0
   10.1125   -4.1024    0.0000 C   0  0  0  0  0  0  0  0  0  0  0  0
    9.3900   -3.7029    0.0000 C   0  0  0  0  0  0  0  0  0  0  0  0
    9.3763   -2.8819    0.0000 C   0  0  0  0  0  0  0  0  0  0  0  0
   10.0850   -2.4602    0.0000 C   0  0  0  0  0  0  0  0  0  0  0  0
   10.8029   -2.8596    0.0000 O   0  0  0  0  0  0  0  0  0  0  0  0
   10.0714   -1.6345    0.0000 C   0  0  0  0  0  0  0  0  0  0  0  0
   11.4231   -3.1262    0.0000 H   0  0  0  0  0  0  0  0  0  0  0  0
    8.6331   -3.2282    0.0000 H   0  0  0  0  0  0  0  0  0  0  0  0
    9.7543   -5.6229    0.0000 H   0  0  0  0  0  0  0  0  0  0  0  0
   11.7717   -4.8352    0.0000 O   0  0  0  0  0  0  0  0  0  0  0  0
   12.6767   -6.2270    0.0000 O   0  0  0  0  0  0  0  0  0  0  0  0
   11.9164   -7.6933    0.0000 O   0  0  0  0  0  0  0  0  0  0  0  0
    7.2677   -4.9579    0.0000 O   0  0  0  0  0  0  0  0  0  0  0  0
    5.8328   -4.1353    0.0000 O   0  0  0  0  0  0  0  0  0  0  0  0
    5.8224   -2.4928    0.0000 O   0  0  0  0  0  0  0  0  0  0  0  0
    7.9540   -1.2444    0.0000 O   0  0  0  0  0  0  0  0  0  0  0  0
   17.8873   -0.1420    0.0000 N   0  0  0  0  0  0  0  0  0  0  0  0
    8.6584   -2.4824    0.0000 O   0  0  0  0  0  0  0  0  0  0  0  0
   10.7755   -1.2128    0.0000 O   0  0  0  0  0  0  0  0  0  0  0  0
  6  8  1  6  0  0  0 
  2  7  1  0  0  0  0 
 10  9  1  0  0  0  0 
 10 11  1  0  0  0  0 
 11 12  1  0  0  0  0 
 12 13  1  0  0  0  0 
 13 14  1  0  0  0  0 
 14 15  1  0  0  0  0 
 14 16  1  1  0  0  0 
 10 15  1  0  0  0  0 
 17 18  1  1  0  0  0 
 18 19  1  0  0  0  0 
 19 20  1  0  0  0  0 
 20 21  1  0  0  0  0 
 22 23  1  0  0  0  0 
 22 25  1  0  0  0  0 
 23 24  1  0  0  0  0 
 24 27  1  0  0  0  0 
 26 25  1  0  0  0  0 
 26 27  1  0  0  0  0 
 26 30  1  0  0  0  0 
 27 28  2  0  0  0  0 
 28 29  1  0  0  0  0 
 29 31  1  0  0  0  0 
 30 31  1  0  0  0  0 
 30 33  1  0  0  0  0 
 31 35  1  0  0  0  0 
 34 32  1  0  0  0  0 
 32 33  1  0  0  0  0 
 34 35  1  0  0  0  0 
 35 36  1  0  0  0  0 
 36 38  1  0  0  0  0 
 37 34  1  0  0  0  0 
 37 38  1  0  0  0  0 
 38 39  1  0  0  0  0 
 39 17  1  0  0  0  0 
 17 40  1  0  0  0  0 
 37 40  1  0  0  0  0 
 23 41  1  1  0  0  0 
 26 42  1  1  0  0  0 
 31 43  1  1  0  0  0 
 34 44  1  1  0  0  0 
 40 45  1  6  0  0  0 
 30 46  1  6  0  0  0 
 35 47  1  6  0  0  0 
 38 48  1  6  0  0  0 
 37 49  1  6  0  0  0 
 20 50  1  6  0  0  0 
 51 41  1  0  0  0  0 
 51 52  1  0  0  0  0 
 52  1  1  6  0  0  0 
 52 53  1  0  0  0  0 
 53  9  1  1  0  0  0 
 53 54  1  0  0  0  0 
 54 55  1  0  0  0  0 
 55 56  1  0  0  0  0 
 55 57  1  1  0  0  0 
 51 56  1  0  0  0  0 
 51 58  1  6  0  0  0 
 10 59  1  6  0  0  0 
  2 60  1  6  0  0  0 
  2  1  1  0  0  0  0 
  2  3  1  0  0  0  0 
  3  4  1  0  0  0  0 
  4  5  1  0  0  0  0 
  5  6  1  0  0  0  0 
  6  7  1  0  0  0  0 
 12 65  1  1  0  0  0 
  3 61  1  6  0  0  0 
 13 66  1  6  0  0  0 
  5 63  1  1  0  0  0 
 16 67  1  0  0  0  0 
 17 68  1  0  0  0  0 
 21 68  1  0  0  0  0 
 11 64  1  6  0  0  0 
 54 69  1  1  0  0  0 
  4 62  1  6  0  0  0 
 57 70  1  0  0  0  0 
M  END
>  <MOLREGNO>
369447

>  <CHEMBLID>
CHEMBL438956

>  <SYNONYMS>
Solasonine

>  <MAX_PHASE>
0

>  <MOLWEIGHT>
884.06

>  <ALOGP>
.02

>  <PSA>
258.7

>  <HBA>
17

>  <HBD>
10

>  <RO5>
3

>  <RTB>
8

>  <RO3>
N

>  <ACD_MOST_APKA>
12.78

>  <ACD_MOST_BPKA>
8.72

>  <ACD_LOGP>
3.45

>  <ACD_LOGD>
2.12

>  <AROMATIC_RINGS>
0

>  <HEAVY_ATOMS>
62

>  <QED_WEIGHTED>
.14

>  <HBA_LIPINSKI>
17

>  <HBD_LIPINSKI>
10

>  <NUM_LIPINSKI_RO5_VIOLATIONS>
2

>  <MW_MONOISOTOPIC>
883.4929

>  <MOLECULAR_SPECIES>
BASE

>  <FULL_MOLFORMULA>
C45H73NO16

$$$$

  CDK    9/16/09,9:20

 69 77  0  0  0  0  0  0  0  0999 V2000
    2.2683    0.6901    0.0000 O   0  0  0  0  0  0  0  0  0  0  0  0
    1.5533    1.1014    0.0000 C   0  0  0  0  0  0  0  0  0  0  0  0
    1.5521    1.9264    0.0000 C   0  0  0  0  0  0  0  0  0  0  0  0
    2.2659    2.3399    0.0000 O   0  0  0  0  0  0  0  0  0  0  0  0
    0.8370    2.3378    0.0000 C   0  0  0  0  0  0  0  0  0  0  0  0
    0.8358    3.1628    0.0000 O   0  0  0  0  0  0  0  0  0  0  0  0
    0.1233    1.9243    0.0000 C   0  0  0  0  0  0  0  0  0  0  0  0
   -0.5917    2.3356    0.0000 O   0  0  0  0  0  0  0  0  0  0  0  0
    0.1245    1.0993    0.0000 C   0  0  0  0  0  0  0  0  0  0  0  0
    0.8396    0.6880    0.0000 O   0  0  0  0  0  0  0  0  0  0  0  0
   -0.5892    0.6858    0.0000 C   0  0  0  0  0  0  0  0  0  0  0  0
    3.7358   -1.7620    0.0000 O   0  0  0  0  0  0  0  0  0  0  0  0
    4.4457   -1.3419    0.0000 C   0  0  0  0  0  0  0  0  0  0  0  0
    5.1645   -1.7466    0.0000 C   0  0  0  0  0  0  0  0  0  0  0  0
    5.1734   -2.5716    0.0000 O   0  0  0  0  0  0  0  0  0  0  0  0
    5.8744   -1.3266    0.0000 C   0  0  0  0  0  0  0  0  0  0  0  0
    6.5932   -1.7313    0.0000 O   0  0  0  0  0  0  0  0  0  0  0  0
    5.8655   -0.5017    0.0000 C   0  0  0  0  0  0  0  0  0  0  0  0
    6.5755   -0.0816    0.0000 O   0  0  0  0  0  0  0  0  0  0  0  0
    5.1467   -0.0969    0.0000 C   0  0  0  0  0  0  0  0  0  0  0  0
    4.4369   -0.5171    0.0000 O   0  0  0  0  0  0  0  0  0  0  0  0
    5.1379    0.7279    0.0000 C   0  0  0  0  0  0  0  0  0  0  0  0
    2.3200   -2.6092    0.0000 O   0  0  0  0  0  0  0  0  0  0  0  0
    2.3071   -1.7844    0.0000 C   0  0  0  0  0  0  0  0  0  0  0  0
    3.0149   -1.3608    0.0000 C   0  0  0  0  0  0  0  0  0  0  0  0
    3.0021   -0.5360    0.0000 C   0  0  0  0  0  0  0  0  0  0  0  0
    3.7100   -0.1123    0.0000 O   0  0  0  0  0  0  0  0  0  0  0  0
    2.2813   -0.1347    0.0000 C   0  0  0  0  0  0  0  0  0  0  0  0
    1.5734   -0.5583    0.0000 C   0  0  0  0  0  0  0  0  0  0  0  0
    1.5864   -1.3831    0.0000 O   0  0  0  0  0  0  0  0  0  0  0  0
    0.8526   -0.1571    0.0000 C   0  0  0  0  0  0  0  0  0  0  0  0
    0.1447   -0.5807    0.0000 O   0  0  0  0  0  0  0  0  0  0  0  0
   -4.3448   -6.0574    0.0000 C   0  0  0  0  0  0  0  0  0  0  0  0
   -3.6323   -6.4821    0.0000 C   0  0  0  0  0  0  0  0  0  0  0  0
   -3.6437   -7.3069    0.0000 N   0  0  0  0  0  0  0  0  0  0  0  0
   -4.3662   -7.7134    0.0000 C   0  0  0  0  0  0  0  0  0  0  0  0
   -5.0787   -7.2887    0.0000 C   0  0  0  0  0  0  0  0  0  0  0  0
   -5.0688   -6.4576    0.0000 C   0  0  0  0  0  0  0  0  0  0  0  0
    0.8874   -2.5870    0.0000 C   0  0  0  0  0  0  0  0  0  0  0  0
    1.6000   -3.0116    0.0000 C   0  0  0  0  0  0  0  0  0  0  0  0
    1.5885   -3.8366    0.0000 C   0  0  0  0  0  0  0  0  0  0  0  0
    0.1634   -2.9871    0.0000 C   0  0  0  0  0  0  0  0  0  0  0  0
    0.1535   -3.8183    0.0000 C   0  0  0  0  0  0  0  0  0  0  0  0
    0.8655   -4.2438    0.0000 C   0  0  0  0  0  0  0  0  0  0  0  0
    0.8531   -5.0687    0.0000 C   0  0  0  0  0  0  0  0  0  0  0  0
    0.1301   -5.4742    0.0000 C   0  0  0  0  0  0  0  0  0  0  0  0
   -0.5710   -4.2174    0.0000 C   0  0  0  0  0  0  0  0  0  0  0  0
   -0.5794   -5.0505    0.0000 C   0  0  0  0  0  0  0  0  0  0  0  0
   -2.0104   -4.2028    0.0000 C   0  0  0  0  0  0  0  0  0  0  0  0
   -1.2841   -3.7915    0.0000 C   0  0  0  0  0  0  0  0  0  0  0  0
   -2.0189   -5.0358    0.0000 C   0  0  0  0  0  0  0  0  0  0  0  0
   -1.3017   -5.4541    0.0000 C   0  0  0  0  0  0  0  0  0  0  0  0
   -1.4779   -6.2652    0.0000 C   0  0  0  0  0  0  0  0  0  0  0  0
   -2.6381   -5.5886    0.0000 C   0  0  0  0  0  0  0  0  0  0  0  0
   -2.3009   -6.3443    0.0000 C   0  0  0  0  0  0  0  0  0  0  0  0
   -2.9154   -6.8986    0.0000 O   0  0  0  0  0  0  0  0  0  0  0  0
   -3.4610   -5.6758    0.0000 C   0  0  0  0  0  0  0  0  0  0  0  0
   -0.5509   -3.3890    0.0000 C   0  0  0  0  0  0  0  0  0  0  0  0
   -2.7269   -4.6049    0.0000 C   0  0  0  0  0  0  0  0  0  0  0  0
   -1.2853   -4.6211    0.0000 H   0  0  0  0  0  0  0  0  0  0  0  0
    0.1381   -4.6319    0.0000 H   0  0  0  0  0  0  0  0  0  0  0  0
   -0.5924   -5.8664    0.0000 H   0  0  0  0  0  0  0  0  0  0  0  0
   -1.8991   -7.0563    0.0000 H   0  0  0  0  0  0  0  0  0  0  0  0
   -4.0133   -5.0630    0.0000 C   0  0  0  0  0  0  0  0  0  0  0  0
   -3.2138   -4.9922    0.0000 H   0  0  0  0  0  0  0  0  0  0  0  0
   -5.7983   -7.6919    0.0000 C   0  0  0  0  0  0  0  0  0  0  0  0
    3.0156   -2.1952    0.0000 H   0  0  0  0  0  0  0  0  0  0  0  0
    4.4408   -2.1632    0.0000 H   0  0  0  0  0  0  0  0  0  0  0  0
    2.2594    1.5215    0.0000 H   0  0  0  0  0  0  0  0  0  0  0  0
  9 11  1  1  0  0  0 
 13 12  1  0  0  0  0 
 13 14  1  0  0  0  0 
 14 15  1  1  0  0  0 
 14 16  1  0  0  0  0 
 33 38  1  0  0  0  0 
 34 35  1  0  0  0  0 
 35 36  1  0  0  0  0 
 36 37  1  0  0  0  0 
 37 38  1  0  0  0  0 
 39 40  1  0  0  0  0 
 16 17  1  1  0  0  0 
 16 18  1  0  0  0  0 
 18 19  1  6  0  0  0 
 18 20  1  0  0  0  0 
 39 42  1  0  0  0  0 
 40 41  1  0  0  0  0 
 41 44  1  0  0  0  0 
 43 42  1  0  0  0  0 
 43 44  1  0  0  0  0 
 20 21  1  0  0  0  0 
 20 22  1  1  0  0  0 
 13 21  1  0  0  0  0 
  2 10  1  0  0  0  0 
 43 47  1  0  0  0  0 
 44 45  2  0  0  0  0 
 45 46  1  0  0  0  0 
 46 48  1  0  0  0  0 
 47 48  1  0  0  0  0 
  2  1  1  0  0  0  0 
  2  3  1  0  0  0  0 
  3  4  1  1  0  0  0 
 47 50  1  0  0  0  0 
 48 52  1  0  0  0  0 
 51 49  1  0  0  0  0 
 49 50  1  0  0  0  0 
 51 52  1  0  0  0  0 
  3  5  1  0  0  0  0 
  5  6  1  1  0  0  0 
  5  7  1  0  0  0  0 
 52 53  1  0  0  0  0 
 53 55  1  0  0  0  0 
 54 51  1  0  0  0  0 
 54 55  1  0  0  0  0 
  7  8  1  6  0  0  0 
  7  9  1  0  0  0  0 
 24 23  1  0  0  0  0 
 24 25  1  0  0  0  0 
 55 56  1  0  0  0  0 
 34 56  1  6  0  0  0 
 34 57  1  0  0  0  0 
 57 54  1  0  0  0  0 
 25 12  1  1  0  0  0 
 43 58  1  6  0  0  0 
 25 26  1  0  0  0  0 
 51 59  1  6  0  0  0 
 26 27  1  6  0  0  0 
 48 60  1  6  0  0  0 
 26 28  1  0  0  0  0 
 47 61  1  1  0  0  0 
 28  1  1  1  0  0  0 
 52 62  1  1  0  0  0 
 28 29  1  0  0  0  0 
 55 63  1  1  0  0  0 
 29 30  1  0  0  0  0 
 57 64  1  1  0  0  0 
 29 31  1  6  0  0  0 
 54 65  1  1  0  0  0 
 31 32  1  0  0  0  0 
 37 66  1  6  0  0  0 
 40 23  1  6  0  0  0 
 24 30  1  0  0  0  0 
 24 67  1  1  0  0  0 
 33 34  1  0  0  0  0 
 13 68  1  1  0  0  0 
  9 10  1  0  0  0  0 
  2 69  1  1  0  0  0 
M  END
>  <MOLREGNO>
465239

>  <CHEMBLID>
CHEMBL443114

>  <SYNONYMS>
Solamargine

>  <MAX_PHASE>
0

>  <MOLWEIGHT>
868.06

>  <ALOGP>
.9

>  <PSA>
238.47

>  <HBA>
16

>  <HBD>
9

>  <RO5>
3

>  <RTB>
7

>  <RO3>
N

>  <ACD_MOST_APKA>
12.64

>  <ACD_MOST_BPKA>
8.72

>  <ACD_LOGP>
3.86

>  <ACD_LOGD>
2.52

>  <AROMATIC_RINGS>
0

>  <HEAVY_ATOMS>
61

>  <QED_WEIGHTED>
.16

>  <HBA_LIPINSKI>
16

>  <HBD_LIPINSKI>
9

>  <NUM_LIPINSKI_RO5_VIOLATIONS>
2

>  <MW_MONOISOTOPIC>
867.498

>  <MOLECULAR_SPECIES>
BASE

>  <FULL_MOLFORMULA>
C45H73NO15

$$$$

  CDK    9/16/09,9:20

 35 40  0  0  0  0  0  0  0  0999 V2000
   -2.4721   -1.4748    0.0000 C   0  0  0  0  0  0  0  0  0  0  0  0
   -2.4721   -0.6505    0.0000 C   0  0  0  0  0  0  0  0  0  0  0  0
   -1.7567   -0.2383    0.0000 C   0  0  0  0  0  0  0  0  0  0  0  0
   -1.7567   -1.8870    0.0000 C   0  0  0  0  0  0  0  0  0  0  0  0
   -1.0415   -1.4748    0.0000 C   0  0  0  0  0  0  0  0  0  0  0  0
   -0.3303   -1.8870    0.0000 C   0  0  0  0  0  0  0  0  0  0  0  0
    0.3850   -1.4748    0.0000 C   0  0  0  0  0  0  0  0  0  0  0  0
    0.3850   -0.6505    0.0000 C   0  0  0  0  0  0  0  0  0  0  0  0
    1.1003   -0.2383    0.0000 C   0  0  0  0  0  0  0  0  0  0  0  0
    1.8843   -0.4952    0.0000 C   0  0  0  0  0  0  0  0  0  0  0  0
    2.3687    0.1739    0.0000 C   0  0  0  0  0  0  0  0  0  0  0  0
    2.8531   -0.4952    0.0000 H   0  0  0  0  0  0  0  0  0  0  0  0
    3.1527    0.4266    0.0000 O   0  0  0  0  0  0  0  0  0  0  0  0
    1.8843    0.8387    0.0000 C   0  0  0  0  0  0  0  0  0  0  0  0
    1.6763    0.1096    0.0000 H   0  0  0  0  0  0  0  0  0  0  0  0
    2.3687    1.5078    0.0000 C   0  0  0  0  0  0  0  0  0  0  0  0
    3.1527    1.2509    0.0000 C   0  0  0  0  0  0  0  0  0  0  0  0
    3.9024    0.9178    0.0000 N   0  0  0  0  0  0  0  0  0  0  0  0
    3.0638    2.0727    0.0000 C   0  0  0  0  0  0  0  0  0  0  0  0
    3.7329    2.5570    0.0000 C   0  0  0  0  0  0  0  0  0  0  0  0
    4.4868    2.2197    0.0000 C   0  0  0  0  0  0  0  0  0  0  0  0
    4.5715    1.4021    0.0000 C   0  0  0  0  0  0  0  0  0  0  0  0
    5.1516    2.7040    0.0000 C   0  0  0  0  0  0  0  0  0  0  0  0
    2.1118    2.2919    0.0000 C   0  0  0  0  0  0  0  0  0  0  0  0
    1.1003    0.5860    0.0000 C   0  0  0  0  0  0  0  0  0  0  0  0
    1.1003    1.4104    0.0000 C   0  0  0  0  0  0  0  0  0  0  0  0
    0.3850    0.9982    0.0000 C   0  0  0  0  0  0  0  0  0  0  0  0
   -0.3303    0.5860    0.0000 C   0  0  0  0  0  0  0  0  0  0  0  0
   -0.3303   -0.2383    0.0000 C   0  0  0  0  0  0  0  0  0  0  0  0
   -1.0415   -0.6505    0.0000 C   0  0  0  0  0  0  0  0  0  0  0  0
   -1.0415    0.1739    0.0000 C   0  0  0  0  0  0  0  0  0  0  0  0
   -3.1832   -1.8870    0.0000 O   0  0  0  0  0  0  0  0  0  0  0  0
   -0.3303   -1.0627    0.0000 H   0  0  0  0  0  0  0  0  0  0  0  0
    0.3850    0.1739    0.0000 H   0  0  0  0  0  0  0  0  0  0  0  0
    1.1003   -1.0627    0.0000 H   0  0  0  0  0  0  0  0  0  0  0  0
  1  2  1  0  0  0  0 
  2  3  1  0  0  0  0 
  1  4  1  0  0  0  0 
  4  5  1  0  0  0  0 
  5  6  2  0  0  0  0 
  6  7  1  0  0  0  0 
  7  8  1  0  0  0  0 
  8  9  1  0  0  0  0 
  9 10  1  0  0  0  0 
 10 11  1  0  0  0  0 
 11 12  1  6  0  0  0 
 11 13  1  0  0  0  0 
 11 14  1  0  0  0  0 
 14 15  1  6  0  0  0 
 14 16  1  0  0  0  0 
 16 17  1  0  0  0  0 
 13 17  1  0  0  0  0 
 17 18  1  1  0  0  0 
 17 19  1  0  0  0  0 
 19 20  1  0  0  0  0 
 20 21  1  0  0  0  0 
 21 22  1  0  0  0  0 
 18 22  1  0  0  0  0 
 21 23  1  1  0  0  0 
 16 24  1  6  0  0  0 
 14 25  1  0  0  0  0 
  9 25  1  0  0  0  0 
 25 26  1  1  0  0  0 
 25 27  1  0  0  0  0 
 27 28  1  0  0  0  0 
 28 29  1  0  0  0  0 
  8 29  1  0  0  0  0 
 29 30  1  0  0  0  0 
  3 30  1  0  0  0  0 
  5 30  1  0  0  0  0 
 30 31  1  1  0  0  0 
  1 32  1  1  0  0  0 
 29 33  1  6  0  0  0 
  8 34  1  1  0  0  0 
  9 35  1  6  0  0  0 
M  END
>  <MOLREGNO>
504204

>  <CHEMBLID>
CHEMBL514596

>  <SYNONYMS>
Solasodine

>  <MAX_PHASE>
0

>  <MOLWEIGHT>
413.64

>  <ALOGP>
4.37

>  <PSA>
41.48

>  <HBA>
3

>  <HBD>
2

>  <RO5>
0

>  <RTB>
0

>  <RO3>
N

>  <ACD_MOST_APKA>


>  <ACD_MOST_BPKA>
8.73

>  <ACD_LOGP>
6.5

>  <ACD_LOGD>
5.16

>  <AROMATIC_RINGS>
0

>  <HEAVY_ATOMS>
30

>  <QED_WEIGHTED>
.58

>  <HBA_LIPINSKI>
3

>  <HBD_LIPINSKI>
2

>  <NUM_LIPINSKI_RO5_VIOLATIONS>
0

>  <MW_MONOISOTOPIC>
413.3294

>  <MOLECULAR_SPECIES>
BASE

>  <FULL_MOLFORMULA>
C27H43NO2

$$$$

  CDK    9/16/09,9:20

 58 65  0  0  0  0  0  0  0  0999 V2000
    2.8810  -20.5271    0.0000 O   0  0  0  0  0  0  0  0  0  0  0  0
    2.1674  -20.1166    0.0000 C   0  0  0  0  0  0  0  0  0  0  0  0
    2.1662  -19.2934    0.0000 C   0  0  0  0  0  0  0  0  0  0  0  0
    2.8786  -18.8807    0.0000 O   0  0  0  0  0  0  0  0  0  0  0  0
    1.4527  -18.8829    0.0000 C   0  0  0  0  0  0  0  0  0  0  0  0
    1.4515  -18.0596    0.0000 O   0  0  0  0  0  0  0  0  0  0  0  0
    0.7404  -19.2955    0.0000 C   0  0  0  0  0  0  0  0  0  0  0  0
    0.0269  -18.8850    0.0000 O   0  0  0  0  0  0  0  0  0  0  0  0
    0.7417  -20.1188    0.0000 C   0  0  0  0  0  0  0  0  0  0  0  0
    1.4552  -20.5293    0.0000 O   0  0  0  0  0  0  0  0  0  0  0  0
    0.0294  -20.5315    0.0000 C   0  0  0  0  0  0  0  0  0  0  0  0
    4.3454  -22.9741    0.0000 O   0  0  0  0  0  0  0  0  0  0  0  0
    2.9326  -23.8195    0.0000 O   0  0  0  0  0  0  0  0  0  0  0  0
    2.9197  -22.9965    0.0000 C   0  0  0  0  0  0  0  0  0  0  0  0
    3.6260  -22.5737    0.0000 C   0  0  0  0  0  0  0  0  0  0  0  0
    3.6132  -21.7506    0.0000 C   0  0  0  0  0  0  0  0  0  0  0  0
    4.3196  -21.3279    0.0000 O   0  0  0  0  0  0  0  0  0  0  0  0
    2.8939  -21.3503    0.0000 C   0  0  0  0  0  0  0  0  0  0  0  0
    2.1875  -21.7730    0.0000 C   0  0  0  0  0  0  0  0  0  0  0  0
    2.2005  -22.5960    0.0000 O   0  0  0  0  0  0  0  0  0  0  0  0
    1.4683  -21.3725    0.0000 C   0  0  0  0  0  0  0  0  0  0  0  0
    0.7618  -21.7952    0.0000 O   0  0  0  0  0  0  0  0  0  0  0  0
   -3.7184  -27.2605    0.0000 C   0  0  0  0  0  0  0  0  0  0  0  0
   -3.0073  -27.6843    0.0000 C   0  0  0  0  0  0  0  0  0  0  0  0
   -3.0187  -28.5075    0.0000 N   0  0  0  0  0  0  0  0  0  0  0  0
   -3.7396  -28.9131    0.0000 C   0  0  0  0  0  0  0  0  0  0  0  0
   -4.4507  -28.4893    0.0000 C   0  0  0  0  0  0  0  0  0  0  0  0
   -4.4408  -27.6598    0.0000 C   0  0  0  0  0  0  0  0  0  0  0  0
    1.5029  -23.7974    0.0000 C   0  0  0  0  0  0  0  0  0  0  0  0
    2.2141  -24.2212    0.0000 C   0  0  0  0  0  0  0  0  0  0  0  0
    2.2026  -25.0443    0.0000 C   0  0  0  0  0  0  0  0  0  0  0  0
    0.7805  -24.1967    0.0000 C   0  0  0  0  0  0  0  0  0  0  0  0
    0.7706  -25.0260    0.0000 C   0  0  0  0  0  0  0  0  0  0  0  0
    1.4811  -25.4508    0.0000 C   0  0  0  0  0  0  0  0  0  0  0  0
    1.4687  -26.2739    0.0000 C   0  0  0  0  0  0  0  0  0  0  0  0
    0.7472  -26.6786    0.0000 C   0  0  0  0  0  0  0  0  0  0  0  0
    0.0476  -25.4245    0.0000 C   0  0  0  0  0  0  0  0  0  0  0  0
    0.0392  -26.2557    0.0000 C   0  0  0  0  0  0  0  0  0  0  0  0
   -1.3888  -25.4099    0.0000 C   0  0  0  0  0  0  0  0  0  0  0  0
   -0.6641  -24.9992    0.0000 C   0  0  0  0  0  0  0  0  0  0  0  0
   -1.3972  -26.2411    0.0000 C   0  0  0  0  0  0  0  0  0  0  0  0
   -0.6816  -26.6585    0.0000 C   0  0  0  0  0  0  0  0  0  0  0  0
   -0.8574  -27.4680    0.0000 C   0  0  0  0  0  0  0  0  0  0  0  0
   -2.0152  -26.7927    0.0000 C   0  0  0  0  0  0  0  0  0  0  0  0
   -1.6787  -27.5468    0.0000 C   0  0  0  0  0  0  0  0  0  0  0  0
   -2.2919  -28.0999    0.0000 O   0  0  0  0  0  0  0  0  0  0  0  0
   -2.8364  -26.8798    0.0000 C   0  0  0  0  0  0  0  0  0  0  0  0
    0.0676  -24.5976    0.0000 C   0  0  0  0  0  0  0  0  0  0  0  0
   -2.1038  -25.8111    0.0000 C   0  0  0  0  0  0  0  0  0  0  0  0
   -0.6653  -25.8273    0.0000 H   0  0  0  0  0  0  0  0  0  0  0  0
    0.7553  -25.8380    0.0000 H   0  0  0  0  0  0  0  0  0  0  0  0
    0.0262  -27.0700    0.0000 H   0  0  0  0  0  0  0  0  0  0  0  0
   -1.2777  -28.2574    0.0000 H   0  0  0  0  0  0  0  0  0  0  0  0
   -3.3875  -26.2683    0.0000 C   0  0  0  0  0  0  0  0  0  0  0  0
   -2.5897  -26.1976    0.0000 H   0  0  0  0  0  0  0  0  0  0  0  0
   -5.1688  -28.8917    0.0000 C   0  0  0  0  0  0  0  0  0  0  0  0
    3.6267  -23.4064    0.0000 H   0  0  0  0  0  0  0  0  0  0  0  0
    2.8721  -19.6974    0.0000 H   0  0  0  0  0  0  0  0  0  0  0  0
 29 30  1  0  0  0  0 
  5  6  1  1  0  0  0 
  5  7  1  0  0  0  0 
  7  8  1  6  0  0  0 
  7  9  1  0  0  0  0 
 29 32  1  0  0  0  0 
 30 31  1  0  0  0  0 
 31 34  1  0  0  0  0 
 33 32  1  0  0  0  0 
 33 34  1  0  0  0  0 
  9 10  1  0  0  0  0 
  9 11  1  1  0  0  0 
 14 13  1  0  0  0  0 
 14 15  1  0  0  0  0 
 33 37  1  0  0  0  0 
 34 35  2  0  0  0  0 
 35 36  1  0  0  0  0 
 36 38  1  0  0  0  0 
 37 38  1  0  0  0  0 
 15 12  1  1  0  0  0 
 15 16  1  0  0  0  0 
 16 17  1  6  0  0  0 
 16 18  1  0  0  0  0 
 37 40  1  0  0  0  0 
 38 42  1  0  0  0  0 
 41 39  1  0  0  0  0 
 39 40  1  0  0  0  0 
 41 42  1  0  0  0  0 
 18  1  1  1  0  0  0 
 18 19  1  0  0  0  0 
 19 20  1  0  0  0  0 
 42 43  1  0  0  0  0 
 43 45  1  0  0  0  0 
 44 41  1  0  0  0  0 
 44 45  1  0  0  0  0 
 19 21  1  6  0  0  0 
 21 22  1  0  0  0  0 
 14 20  1  0  0  0  0 
 23 24  1  0  0  0  0 
 45 46  1  0  0  0  0 
 24 46  1  6  0  0  0 
 24 47  1  0  0  0  0 
 47 44  1  0  0  0  0 
  2 10  1  0  0  0  0 
 33 48  1  6  0  0  0 
 41 49  1  6  0  0  0 
  2  1  1  0  0  0  0 
 38 50  1  6  0  0  0 
  2  3  1  0  0  0  0 
 37 51  1  1  0  0  0 
  3  4  1  1  0  0  0 
 42 52  1  1  0  0  0 
  3  5  1  0  0  0  0 
 45 53  1  1  0  0  0 
 23 28  1  0  0  0  0 
 47 54  1  1  0  0  0 
 24 25  1  0  0  0  0 
 44 55  1  1  0  0  0 
 25 26  1  0  0  0  0 
 27 56  1  6  0  0  0 
 30 13  1  6  0  0  0 
 26 27  1  0  0  0  0 
 14 57  1  1  0  0  0 
 27 28  1  0  0  0  0 
  2 58  1  1  0  0  0 
M  END
>  <MOLREGNO>
465241

>  <CHEMBLID>
CHEMBL446743

>  <SYNONYMS>
Khasianine

>  <MAX_PHASE>
0

>  <MOLWEIGHT>
721.92

>  <ALOGP>
1.76

>  <PSA>
179.55

>  <HBA>
12

>  <HBD>
7

>  <RO5>
3

>  <RTB>
5

>  <RO3>
N

>  <ACD_MOST_APKA>
12.78

>  <ACD_MOST_BPKA>
8.72

>  <ACD_LOGP>
2.92

>  <ACD_LOGD>
1.58

>  <AROMATIC_RINGS>
0

>  <HEAVY_ATOMS>
51

>  <QED_WEIGHTED>
.21

>  <HBA_LIPINSKI>
12

>  <HBD_LIPINSKI>
7

>  <NUM_LIPINSKI_RO5_VIOLATIONS>
2

>  <MW_MONOISOTOPIC>
721.4401

>  <MOLECULAR_SPECIES>
BASE

>  <FULL_MOLFORMULA>
C39H63NO11

$$$$

  SciTegic11201309402D

 32 35  0  0  0  0            999 V2000
    2.7083   -0.6118    0.0000 C   0  0
    3.5204   -0.4666    0.0000 C   0  0
    3.8007    0.3094    0.0000 C   0  0  1  0  0  0
    3.2689    0.9401    0.0000 C   0  0
    2.4568    0.7949    0.0000 C   0  0
    1.9249    1.4256    0.0000 C   0  0
    1.1128    1.2804    0.0000 C   0  0
    0.8325    0.5044    0.0000 C   0  0
    1.3643   -0.1263    0.0000 C   0  0  1  0  0  0
    2.1765    0.0189    0.0000 C   0  0  1  0  0  0
    1.0840   -0.9022    0.0000 C   0  0
    0.2719   -1.0474    0.0000 C   0  0
   -0.2599   -0.4167    0.0000 C   0  0  1  0  0  0
    0.0204    0.3592    0.0000 C   0  0  1  0  0  0
   -0.6309    0.8656    0.0000 C   0  0
   -1.3138    0.4026    0.0000 C   0  0
   -1.0845   -0.3899    0.0000 C   0  0  2  0  0  0
   -0.6198   -1.1591    0.0000 C   0  0
    1.8962   -0.7570    0.0000 C   0  0
   -1.5908   -1.0412    0.0000 C   0  0  2  0  0  0
   -1.2799   -1.8054    0.0000 C   0  0
   -2.4081   -0.9284    0.0000 C   0  0
   -2.7190   -0.1642    0.0000 C   0  0
   -3.5362   -0.0513    0.0000 C   0  0  1  0  0  0
   -3.8471    0.7128    0.0000 C   0  0
   -4.6643    0.8257    0.0000 C   0  0
   -3.3407    1.3642    0.0000 C   0  0
   -4.0426   -0.7027    0.0000 C   0  0
    4.6128    0.4546    0.0000 O   0  0
   -2.0666   -0.2015    0.0000 H   0  0
    0.2600    1.3301    0.0000 H   0  0
    2.0089   -0.8908    0.0000 H   0  0
  1  2  1  0
  1 10  1  0
  2  3  1  0
  3  4  1  0
  3 29  1  1
  4  5  1  0
  5  6  2  0
 10  5  1  0
  6  7  1  0
  7  8  2  0
  9  8  1  0
 14  8  1  0
 10  9  1  0
 11  9  1  0
 10 19  1  1
 11 12  1  0
 12 13  1  0
 13 14  1  0
 13 17  1  0
 13 18  1  1
 14 15  1  0
 15 16  1  0
 16 17  1  0
 17 20  1  0
 20 21  1  6
 20 22  1  0
 22 23  2  0
 23 24  1  0
 24 25  1  0
 24 28  1  6
 25 26  1  0
 25 27  1  0
 17 30  1  6
 14 31  1  6
  9 32  1  6
M  END
>  <MOLREGNO>
694912

>  <CHEMBLID>
CHEMBL1232562

>  <SYNONYMS>
Ergosterol D

>  <MAX_PHASE>
0

>  <MOLWEIGHT>
396.65

>  <ALOGP>
6.93

>  <PSA>
20.23

>  <HBA>
1

>  <HBD>
1

>  <RO5>
1

>  <RTB>
4

>  <RO3>
N

>  <ACD_MOST_APKA>


>  <ACD_MOST_BPKA>


>  <ACD_LOGP>
9.28

>  <ACD_LOGD>
9.28

>  <AROMATIC_RINGS>
0

>  <HEAVY_ATOMS>
29

>  <QED_WEIGHTED>
.51

>  <HBA_LIPINSKI>
1

>  <HBD_LIPINSKI>
1

>  <NUM_LIPINSKI_RO5_VIOLATIONS>
1

>  <MW_MONOISOTOPIC>
396.3392

>  <MOLECULAR_SPECIES>
NEUTRAL

>  <FULL_MOLFORMULA>
C28H44O

$$$$

  SciTegic01161211252D

 39 42  0  0  0  0            999 V2000
   -1.3341   -3.0096    0.0000 C   0  0
   -1.3341   -3.8383    0.0000 C   0  0
   -0.6204   -4.2503    0.0000 C   0  0
   -0.6204   -2.5929    0.0000 C   0  0
    0.0978   -3.0096    0.0000 C   0  0  1  0  0  0
    0.0988   -3.8383    0.0000 C   0  0  1  0  0  0
    0.8130   -4.2493    0.0000 C   0  0
    1.5308   -3.8364    0.0000 C   0  0  2  0  0  0
    0.8110   -2.5920    0.0000 C   0  0
    1.5301   -3.0108    0.0000 C   0  0
    1.5346   -1.3494    0.0000 C   0  0
    0.8101   -1.7621    0.0000 C   0  0
   -2.0479   -4.2503    0.0000 O   0  0
    0.0897   -2.1855    0.0000 C   0  0
    2.2370   -3.4216    0.0000 C   0  0
    2.2575   -1.7697    0.0000 C   0  0  2  0  0  0
    2.2461   -2.6021    0.0000 C   0  0  1  0  0  0
    3.0341   -2.8704    0.0000 C   0  0  2  0  0  0
    3.5329   -2.2036    0.0000 C   0  0
    3.0525   -1.5236    0.0000 C   0  0  1  0  0  0
    3.4635   -0.8095    0.0000 C   0  0  2  0  0  0
    4.2876   -0.8084    0.0000 C   0  0
    4.7007   -1.5216    0.0000 C   0  0
    5.5248   -1.5206    0.0000 C   0  0
    3.0506   -0.0962    0.0000 C   0  0
    2.2507   -0.9447    0.0000 C   0  0
    3.8759   -1.5216    0.0000 H   0  0
   -1.0412   -4.9599    0.0000 C   0  0
   -0.2171   -4.9599    0.0000 C   0  0
    0.0943   -4.6578    0.0000 H   0  0
    2.2443   -4.2487    0.0000 O   0  0
    0.0973   -1.3484    0.0000 O   0  0
    3.2780   -3.6575    0.0000 O   0  0
    4.2895   -2.2358    0.0000 O   0  0
    5.9377   -2.2337    0.0000 C   0  0  2  0  0  0
    6.7618   -2.2327    0.0000 C   0  0
    5.5265   -2.9479    0.0000 C   0  0
    7.1747   -2.9458    0.0000 O   0  0
    7.1730   -1.5185    0.0000 O   0  0
  9 10  2  0
 17 18  1  0
 18 19  1  0
 19 20  1  0
 20 16  1  0
  3  6  1  0
 20 21  1  0
  5  4  1  0
 21 22  1  0
  5  6  1  0
 22 23  1  0
 23 24  1  0
  9 12  1  0
 21 25  1  6
 10 17  1  0
 16 26  1  1
 16 11  1  0
 20 27  1  6
 11 12  1  0
  3 28  1  0
  1  2  1  0
  3 29  1  0
  2 13  2  0
  6 30  1  6
  1  4  1  0
  8 31  1  1
  5 14  1  1
 12 32  2  0
  2  3  1  0
 18 33  1  6
 17 15  1  6
 23 34  2  0
 16 17  1  0
 24 35  1  0
  5  9  1  0
 35 36  1  0
  6  7  1  0
 35 37  1  6
  7  8  1  0
 36 38  1  0
  8 10  1  0
 36 39  2  0
M  END
>  <MOLREGNO>
603093

>  <CHEMBLID>
CHEMBL602899

>  <SYNONYMS>
Ganoderic Acid A

>  <MAX_PHASE>
0

>  <MOLWEIGHT>
516.67

>  <ALOGP>
2.78

>  <PSA>
128.97

>  <HBA>
7

>  <HBD>
3

>  <RO5>
1

>  <RTB>
6

>  <RO3>
N

>  <ACD_MOST_APKA>
4.78

>  <ACD_MOST_BPKA>


>  <ACD_LOGP>
1.86

>  <ACD_LOGD>
-.73

>  <AROMATIC_RINGS>
0

>  <HEAVY_ATOMS>
37

>  <QED_WEIGHTED>
.5

>  <HBA_LIPINSKI>
7

>  <HBD_LIPINSKI>
3

>  <NUM_LIPINSKI_RO5_VIOLATIONS>
0

>  <MW_MONOISOTOPIC>
516.3087

>  <MOLECULAR_SPECIES>
ACID

>  <FULL_MOLFORMULA>
C30H44O7

$$$$

  SciTegic02181312462D

 39 42  0  0  0  0            999 V2000
   23.9441  -18.9809    0.0000 C   0  0
   23.5354  -18.2719    0.0000 C   0  0
   23.1221  -18.9783    0.0000 C   0  0
   22.8263  -17.0416    0.0000 C   0  0
   22.8263  -17.8632    0.0000 C   0  0
   23.5391  -16.6287    0.0000 C   0  0
   24.2518  -17.0416    0.0000 C   0  0  1  0  0  0
   24.2528  -17.8632    0.0000 C   0  0  1  0  0  0
   24.9645  -18.2730    0.0000 C   0  0
   25.6798  -17.8614    0.0000 C   0  0  1  0  0  0
   24.9625  -16.6296    0.0000 C   0  0
   25.6807  -17.0404    0.0000 C   0  0
   25.6795  -15.3927    0.0000 C   0  0
   24.9587  -15.8025    0.0000 C   0  0
   26.3977  -15.8035    0.0000 C   0  0  1  0  0  0
   26.3945  -16.6338    0.0000 C   0  0  1  0  0  0
   27.1833  -16.8891    0.0000 C   0  0
   27.6739  -16.2234    0.0000 C   0  0
   27.1883  -15.5541    0.0000 C   0  0  2  0  0  0
   27.4464  -14.7697    0.0000 C   0  0  1  0  0  0
   28.2548  -14.6011    0.0000 C   0  0
   26.8962  -14.1581    0.0000 C   0  0
   28.8051  -15.2168    0.0000 C   0  0
   29.6135  -15.0481    0.0000 C   0  0
   30.1637  -15.6597    0.0000 C   0  0
   30.9722  -15.4952    0.0000 C   0  0
   29.9057  -16.4441    0.0000 C   0  0
   31.5224  -16.1068    0.0000 O   0  0
   22.1118  -18.2771    0.0000 O   0  0
   24.2444  -16.2199    0.0000 C   0  0
   26.3923  -14.9812    0.0000 C   0  0
   26.3882  -17.4545    0.0000 C   0  0
   24.2611  -18.4137    0.0000 H   0  0
   27.4354  -17.6755    0.0000 O   0  0
   26.3944  -18.2752    0.0000 O   0  0
   24.2431  -15.3945    0.0000 O   0  0
   28.5470  -15.9970    0.0000 O   0  0
   31.2303  -14.7108    0.0000 O   0  0
   26.7677  -16.2658    0.0000 H   0  0
  2  1  1  0
  3  2  1  0
  4  5  1  0
  4  6  1  0
  5  2  1  0
  2  8  1  0
  7  6  1  0
  7  8  1  0
  7 11  1  0
  8  9  1  0
  9 10  1  0
 10 12  1  0
 11 12  2  0
 11 14  1  0
 12 16  1  0
 15 13  1  0
 13 14  1  0
 15 16  1  0
 16 17  1  0
 17 18  1  0
 18 19  1  0
 19 15  1  0
 19 20  1  0
 20 21  1  0
 20 22  1  6
 21 23  1  0
 23 24  1  0
 24 25  1  0
 25 26  1  0
 25 27  1  0
 26 28  1  0
  5 29  2  0
  7 30  1  1
 15 31  1  1
 16 32  1  6
  8 33  1  6
 17 34  2  0
 10 35  1  1
 14 36  2  0
 23 37  2  0
 26 38  2  0
 19 39  1  6
M  END
>  <MOLREGNO>
1444622

>  <CHEMBLID>
CHEMBL2205002

>  <SYNONYMS>
Ganoderic Acid D | Ganoderenic Acid D

>  <MAX_PHASE>
0

>  <MOLWEIGHT>
514.65

>  <ALOGP>
2.88

>  <PSA>
125.8

>  <HBA>
7

>  <HBD>
2

>  <RO5>
1

>  <RTB>
6

>  <RO3>
N

>  <ACD_MOST_APKA>
9.39

>  <ACD_MOST_BPKA>


>  <ACD_LOGP>
5.33

>  <ACD_LOGD>
5.32

>  <AROMATIC_RINGS>
0

>  <HEAVY_ATOMS>
37

>  <QED_WEIGHTED>
.56

>  <HBA_LIPINSKI>
7

>  <HBD_LIPINSKI>
2

>  <NUM_LIPINSKI_RO5_VIOLATIONS>
0

>  <MW_MONOISOTOPIC>
514.2931

>  <MOLECULAR_SPECIES>
NEUTRAL

>  <FULL_MOLFORMULA>
C30H42O7

$$$$

  CDK    9/16/09,9:20

 43 46  0  0  0  0  0  0  0  0999 V2000
    2.0667   -8.0542    0.0000 C   0  0  0  0  0  0  0  0  0  0  0  0
    2.0667   -8.8792    0.0000 C   0  0  0  0  0  0  0  0  0  0  0  0
    2.7787   -9.2875    0.0000 C   0  0  0  0  0  0  0  0  0  0  0  0
    2.7787   -7.6375    0.0000 C   0  0  0  0  0  0  0  0  0  0  0  0
    3.4907   -8.0542    0.0000 C   0  0  0  0  0  0  0  0  0  0  0  0
    3.4918   -8.8792    0.0000 C   0  0  0  0  0  0  0  0  0  0  0  0
    4.2028   -9.2885    0.0000 C   0  0  0  0  0  0  0  0  0  0  0  0
    4.9174   -8.8773    0.0000 C   0  0  0  0  0  0  0  0  0  0  0  0
    4.2007   -7.6385    0.0000 C   0  0  0  0  0  0  0  0  0  0  0  0
    4.9182   -8.0530    0.0000 C   0  0  0  0  0  0  0  0  0  0  0  0
    4.9170   -6.3986    0.0000 C   0  0  0  0  0  0  0  0  0  0  0  0
    4.1970   -6.8121    0.0000 C   0  0  0  0  0  0  0  0  0  0  0  0
    5.6345   -6.8131    0.0000 C   0  0  0  0  0  0  0  0  0  0  0  0
    5.6314   -7.6426    0.0000 C   0  0  0  0  0  0  0  0  0  0  0  0
    6.4193   -7.9019    0.0000 C   0  0  0  0  0  0  0  0  0  0  0  0
    6.9095   -7.2326    0.0000 C   0  0  0  0  0  0  0  0  0  0  0  0
    6.4244   -6.5598    0.0000 C   0  0  0  0  0  0  0  0  0  0  0  0
    5.6292   -5.9875    0.0000 C   0  0  0  0  0  0  0  0  0  0  0  0
    5.6250   -8.4667    0.0000 C   0  0  0  0  0  0  0  0  0  0  0  0
    6.8379   -5.8469    0.0000 C   0  0  0  0  0  0  0  0  0  0  0  0
    7.6629   -5.8485    0.0000 C   0  0  0  0  0  0  0  0  0  0  0  0
    8.0740   -6.5638    0.0000 C   0  0  0  0  0  0  0  0  0  0  0  0
    8.8990   -6.5655    0.0000 C   0  0  0  0  0  0  0  0  0  0  0  0
    3.4820   -6.4004    0.0000 O   0  0  0  0  0  0  0  0  0  0  0  0
    6.6713   -8.6875    0.0000 O   0  0  0  0  0  0  0  0  0  0  0  0
    5.6313   -9.2908    0.0000 O   0  0  0  0  0  0  0  0  0  0  0  0
    1.3528   -9.2927    0.0000 O   0  0  0  0  0  0  0  0  0  0  0  0
    2.3583  -10.0000    0.0000 C   0  0  0  0  0  0  0  0  0  0  0  0
    3.1833  -10.0000    0.0000 C   0  0  0  0  0  0  0  0  0  0  0  0
    3.4833   -7.2292    0.0000 C   0  0  0  0  0  0  0  0  0  0  0  0
    3.4875   -9.7000    0.0000 H   0  0  0  0  0  0  0  0  0  0  0  0
    4.9180   -5.5736    0.0000 O   0  0  0  0  0  0  0  0  0  0  0  0
    4.2041   -5.1602    0.0000 C   0  0  0  0  0  0  0  0  0  0  0  0
    4.2023   -4.3372    0.0000 O   0  0  0  0  0  0  0  0  0  0  0  0
    3.4862   -5.5738    0.0000 C   0  0  0  0  0  0  0  0  0  0  0  0
    6.4268   -5.1316    0.0000 C   0  0  0  0  0  0  0  0  0  0  0  0
    7.2167   -6.7708    0.0000 H   0  0  0  0  0  0  0  0  0  0  0  0
    7.6601   -7.2775    0.0000 O   0  0  0  0  0  0  0  0  0  0  0  0
    9.3101   -7.2807    0.0000 C   0  0  0  0  0  0  0  0  0  0  0  0
   10.1351   -7.2824    0.0000 C   0  0  0  0  0  0  0  0  0  0  0  0
    8.8961   -7.9944    0.0000 C   0  0  0  0  0  0  0  0  0  0  0  0
    8.0734   -7.9949    0.0000 O   0  0  0  0  0  0  0  0  0  0  0  0
    9.3094   -8.7119    0.0000 O   0  0  0  0  0  0  0  0  0  0  0  0
 17 20  1  0  0  0  0 
  3  6  1  0  0  0  0 
 20 21  1  0  0  0  0 
  5  4  1  0  0  0  0 
 21 22  1  0  0  0  0 
  5  6  1  0  0  0  0 
 22 23  1  0  0  0  0 
 12 24  2  0  0  0  0 
  9 12  1  0  0  0  0 
 15 25  2  0  0  0  0 
 10 14  1  0  0  0  0 
  8 26  2  0  0  0  0 
 13 11  1  0  0  0  0 
  2 27  2  0  0  0  0 
 11 12  1  0  0  0  0 
  3 28  1  0  0  0  0 
 13 14  1  0  0  0  0 
  3 29  1  0  0  0  0 
  1  2  1  0  0  0  0 
  5 30  1  1  0  0  0 
  1  4  1  0  0  0  0 
  6 31  1  6  0  0  0 
  2  3  1  0  0  0  0 
 11 32  1  1  0  0  0 
  5  9  1  0  0  0  0 
 32 33  1  0  0  0  0 
  6  7  1  0  0  0  0 
 14 15  1  0  0  0  0 
 33 34  2  0  0  0  0 
 33 35  1  0  0  0  0 
 15 16  1  0  0  0  0 
 20 36  1  6  0  0  0 
 16 17  1  0  0  0  0 
 17 37  1  6  0  0  0 
 17 13  1  0  0  0  0 
 22 38  2  0  0  0  0 
  7  8  1  0  0  0  0 
 23 39  1  0  0  0  0 
 13 18  1  1  0  0  0 
 39 40  1  0  0  0  0 
  8 10  1  0  0  0  0 
 39 41  1  0  0  0  0 
 14 19  1  6  0  0  0 
  9 10  2  0  0  0  0 
 41 42  1  0  0  0  0 
 41 43  2  0  0  0  0 
M  END
>  <MOLREGNO>
464244

>  <CHEMBLID>
CHEMBL453981

>  <SYNONYMS>
Ganoderic Acid F

>  <MAX_PHASE>
0

>  <MOLWEIGHT>
570.67

>  <ALOGP>
2.7

>  <PSA>
148.94

>  <HBA>
9

>  <HBD>
1

>  <RO5>
1

>  <RTB>
8

>  <RO3>
N

>  <ACD_MOST_APKA>
4.77

>  <ACD_MOST_BPKA>


>  <ACD_LOGP>
3.81

>  <ACD_LOGD>
1.21

>  <AROMATIC_RINGS>
0

>  <HEAVY_ATOMS>
41

>  <QED_WEIGHTED>
.44

>  <HBA_LIPINSKI>
9

>  <HBD_LIPINSKI>
1

>  <NUM_LIPINSKI_RO5_VIOLATIONS>
0

>  <MW_MONOISOTOPIC>
570.2829

>  <MOLECULAR_SPECIES>
ACID

>  <FULL_MOLFORMULA>
C32H42O9

$$$$

  SciTegic02271217242D

 40 43  0  0  0  0            999 V2000
   -2.9314   -1.0175    0.0000 C   0  0
   -2.9314   -1.8431    0.0000 C   0  0  1  0  0  0
   -2.2188   -2.2517    0.0000 C   0  0
   -2.2188   -0.6004    0.0000 C   0  0
   -1.5062   -1.0175    0.0000 C   0  0  1  0  0  0
   -1.5052   -1.8431    0.0000 C   0  0  1  0  0  0
   -0.7936   -2.2527    0.0000 C   0  0
   -0.0786   -1.8412    0.0000 C   0  0  1  0  0  0
   -0.7957   -0.6014    0.0000 C   0  0
   -0.0839   -1.0179    0.0000 C   0  0
   -0.0761    0.6286    0.0000 C   0  0  2  0  0  0
   -0.7949    0.2210    0.0000 C   0  0
    0.6358    0.2122    0.0000 C   0  0  1  0  0  0
    0.6322   -0.6084    0.0000 C   0  0  1  0  0  0
    1.4114   -0.8653    0.0000 C   0  0
    1.8966   -0.2037    0.0000 C   0  0
    1.4173    0.4621    0.0000 C   0  0  2  0  0  0
    1.8011    1.1924    0.0000 C   0  0  1  0  0  0
    2.6261    1.2252    0.0000 C   0  0
    1.3602    1.8904    0.0000 C   0  0
    3.0670    0.5272    0.0000 C   0  0
    3.8919    0.5600    0.0000 C   0  0
    2.6829   -0.2037    0.0000 O   0  0
    4.3328   -0.1381    0.0000 C   0  0
    5.1578   -0.1053    0.0000 C   0  0
    3.9487   -0.8689    0.0000 C   0  0
    5.5987   -0.8033    0.0000 O   0  0
    5.5418    0.6256    0.0000 O   0  0
   -1.5136   -0.1918    0.0000 C   0  0
   -2.6395   -2.9647    0.0000 C   0  0
   -1.8139   -2.9647    0.0000 C   0  0
    0.6297    1.0383    0.0000 C   0  0
   -3.6457   -2.2569    0.0000 O   0  0
    0.6375   -2.2522    0.0000 O   0  0
    0.6255   -1.4303    0.0000 C   0  0
   -1.5136    0.6380    0.0000 O   0  0
    1.6630   -1.6517    0.0000 O   0  0
    2.2392    0.4628    0.0000 H   0  0
   -1.2927   -2.6353    0.0000 H   0  0
   -0.0705    1.4542    0.0000 O   0  0
  8 10  1  0
 18 19  1  0
  9 10  2  0
 18 20  1  6
  3  6  1  0
 19 21  1  0
  5  4  1  0
 21 22  1  0
  5  6  1  0
 21 23  2  0
 22 24  1  0
  9 12  1  0
 24 25  1  0
 10 14  1  0
 24 26  1  0
 13 11  1  0
 25 27  1  0
 11 12  1  0
 25 28  2  0
 13 14  1  0
  5 29  1  1
  1  2  1  0
  3 30  1  0
  1  4  1  0
  3 31  1  0
  2  3  1  0
 13 32  1  1
  5  9  1  0
  2 33  1  1
  6  7  1  0
  8 34  1  1
 14 15  1  0
 14 35  1  6
 15 16  1  0
 12 36  2  0
 16 17  1  0
 15 37  2  0
 17 13  1  0
 17 38  1  6
  7  8  1  0
  6 39  1  6
 17 18  1  0
 11 40  1  1
M  END
>  <MOLREGNO>
1265767

>  <CHEMBLID>
CHEMBL1922175

>  <SYNONYMS>
Ganoderic Acid G

>  <MAX_PHASE>
0

>  <MOLWEIGHT>
532.67

>  <ALOGP>
2.12

>  <PSA>
149.19

>  <HBA>
8

>  <HBD>
4

>  <RO5>
1

>  <RTB>
6

>  <RO3>
N

>  <ACD_MOST_APKA>
4.77

>  <ACD_MOST_BPKA>


>  <ACD_LOGP>
.64

>  <ACD_LOGD>
-1.97

>  <AROMATIC_RINGS>
0

>  <HEAVY_ATOMS>
38

>  <QED_WEIGHTED>
.41

>  <HBA_LIPINSKI>
8

>  <HBD_LIPINSKI>
4

>  <NUM_LIPINSKI_RO5_VIOLATIONS>
0

>  <MW_MONOISOTOPIC>
532.3036

>  <MOLECULAR_SPECIES>
ACID

>  <FULL_MOLFORMULA>
C30H44O8

$$$$

  SciTegic01161211232D

 35 38  0  0  0  0            999 V2000
   -4.1625   -6.7667    0.0000 C   0  0
   -4.1625   -7.5917    0.0000 C   0  0  1  0  0  0
   -3.4505   -8.0000    0.0000 C   0  0
   -3.4505   -6.3500    0.0000 C   0  0
   -2.7385   -6.7667    0.0000 C   0  0  1  0  0  0
   -2.7374   -7.5917    0.0000 C   0  0  1  0  0  0
   -2.0264   -8.0010    0.0000 C   0  0
   -1.3118   -7.5898    0.0000 C   0  0  1  0  0  0
   -2.0285   -6.3510    0.0000 C   0  0
   -1.3109   -6.7655    0.0000 C   0  0
   -1.3122   -5.1111    0.0000 C   0  0
   -2.0322   -5.5246    0.0000 C   0  0
   -0.5946   -5.5256    0.0000 C   0  0  1  0  0  0
   -0.5978   -6.3551    0.0000 C   0  0  1  0  0  0
    0.1902   -6.6144    0.0000 C   0  0
    0.6803   -5.9451    0.0000 C   0  0
    0.1952   -5.2723    0.0000 C   0  0  2  0  0  0
   -3.8708   -8.7125    0.0000 C   0  0
   -3.0458   -8.7125    0.0000 C   0  0
   -2.7458   -5.9417    0.0000 C   0  0
   -2.7472   -5.1129    0.0000 O   0  0
   -0.6042   -7.1792    0.0000 C   0  0
   -0.6000   -4.7000    0.0000 C   0  0
    0.4531   -4.4887    0.0000 C   0  0  1  0  0  0
    1.2607   -4.3202    0.0000 C   0  0
   -0.0966   -3.8735    0.0000 C   0  0
    1.0167   -5.2708    0.0000 H   0  0
    1.8104   -4.9353    0.0000 C   0  0
    2.6180   -4.7668    0.0000 C   0  0
   -2.7417   -8.4125    0.0000 H   0  0
   -4.8764   -8.0052    0.0000 O   0  0
    0.4421   -7.4000    0.0000 O   0  0
   -0.5979   -8.0033    0.0000 O   0  0
    3.1678   -5.3820    0.0000 O   0  0
    2.8759   -3.9832    0.0000 O   0  0
 15 16  1  0
 16 17  1  0
 17 13  1  0
  7  8  1  0
  3 18  1  0
  8 10  1  0
  3 19  1  0
  9 10  2  0
  5 20  1  1
  3  6  1  0
 12 21  2  0
  5  4  1  0
 14 22  1  6
  5  6  1  0
 13 23  1  1
 17 24  1  0
  9 12  1  0
 24 25  1  0
 10 14  1  0
 24 26  1  6
 13 11  1  0
 17 27  1  6
 11 12  1  0
 25 28  1  0
 13 14  1  0
 28 29  1  0
  1  2  1  0
  6 30  1  6
  1  4  1  0
  2 31  1  1
  2  3  1  0
 15 32  2  0
  5  9  1  0
  8 33  1  1
  6  7  1  0
 29 34  1  0
 14 15  1  0
 29 35  2  0
M  END
>  <MOLREGNO>
465651

>  <CHEMBLID>
CHEMBL465487

>  <SYNONYMS>
Lucidenic Acid N

>  <MAX_PHASE>
0

>  <MOLWEIGHT>
460.6

>  <ALOGP>
2.82

>  <PSA>
111.9

>  <HBA>
6

>  <HBD>
3

>  <RO5>
0

>  <RTB>
4

>  <RO3>
N

>  <ACD_MOST_APKA>
4.72

>  <ACD_MOST_BPKA>


>  <ACD_LOGP>
1.91

>  <ACD_LOGD>
-.74

>  <AROMATIC_RINGS>
0

>  <HEAVY_ATOMS>
33

>  <QED_WEIGHTED>
.6

>  <HBA_LIPINSKI>
6

>  <HBD_LIPINSKI>
3

>  <NUM_LIPINSKI_RO5_VIOLATIONS>
0

>  <MW_MONOISOTOPIC>
460.2825

>  <MOLECULAR_SPECIES>
ACID

>  <FULL_MOLFORMULA>
C27H40O6

$$$$

  CDK    9/16/09,9:20

 36 39  0  0  0  0  0  0  0  0999 V2000
    7.4542   -9.7417    0.0000 C   0  0  0  0  0  0  0  0  0  0  0  0
    7.4542  -10.5667    0.0000 C   0  0  0  0  0  0  0  0  0  0  0  0
    8.1662  -10.9750    0.0000 C   0  0  0  0  0  0  0  0  0  0  0  0
    8.1662   -9.3250    0.0000 C   0  0  0  0  0  0  0  0  0  0  0  0
    8.8782   -9.7417    0.0000 C   0  0  0  0  0  0  0  0  0  0  0  0
    8.8793  -10.5667    0.0000 C   0  0  0  0  0  0  0  0  0  0  0  0
    9.5903  -10.9760    0.0000 C   0  0  0  0  0  0  0  0  0  0  0  0
   10.3049  -10.5648    0.0000 C   0  0  0  0  0  0  0  0  0  0  0  0
    9.5882   -9.3260    0.0000 C   0  0  0  0  0  0  0  0  0  0  0  0
   10.3057   -9.7405    0.0000 C   0  0  0  0  0  0  0  0  0  0  0  0
   10.3045   -8.0861    0.0000 C   0  0  0  0  0  0  0  0  0  0  0  0
    9.5845   -8.4996    0.0000 C   0  0  0  0  0  0  0  0  0  0  0  0
   11.0220   -8.5006    0.0000 C   0  0  0  0  0  0  0  0  0  0  0  0
   11.0189   -9.3301    0.0000 C   0  0  0  0  0  0  0  0  0  0  0  0
   11.8068   -9.5894    0.0000 C   0  0  0  0  0  0  0  0  0  0  0  0
   12.2970   -8.9201    0.0000 C   0  0  0  0  0  0  0  0  0  0  0  0
   11.8119   -8.2473    0.0000 C   0  0  0  0  0  0  0  0  0  0  0  0
   11.0167   -7.6750    0.0000 C   0  0  0  0  0  0  0  0  0  0  0  0
   11.0125  -10.1542    0.0000 C   0  0  0  0  0  0  0  0  0  0  0  0
   12.2254   -7.5344    0.0000 C   0  0  0  0  0  0  0  0  0  0  0  0
   13.0504   -7.5360    0.0000 C   0  0  0  0  0  0  0  0  0  0  0  0
   13.4615   -8.2513    0.0000 C   0  0  0  0  0  0  0  0  0  0  0  0
   14.2865   -8.2530    0.0000 C   0  0  0  0  0  0  0  0  0  0  0  0
   14.6959   -8.9671    0.0000 O   0  0  0  0  0  0  0  0  0  0  0  0
   14.6987   -7.5382    0.0000 O   0  0  0  0  0  0  0  0  0  0  0  0
    8.8695   -8.0879    0.0000 O   0  0  0  0  0  0  0  0  0  0  0  0
   12.0588  -10.3750    0.0000 O   0  0  0  0  0  0  0  0  0  0  0  0
   11.0188  -10.9783    0.0000 O   0  0  0  0  0  0  0  0  0  0  0  0
    6.7403  -10.9802    0.0000 O   0  0  0  0  0  0  0  0  0  0  0  0
    7.7458  -11.6875    0.0000 C   0  0  0  0  0  0  0  0  0  0  0  0
    8.5708  -11.6875    0.0000 C   0  0  0  0  0  0  0  0  0  0  0  0
    8.8708   -8.9167    0.0000 C   0  0  0  0  0  0  0  0  0  0  0  0
    8.8750  -11.3875    0.0000 H   0  0  0  0  0  0  0  0  0  0  0  0
   10.3055   -7.2611    0.0000 O   0  0  0  0  0  0  0  0  0  0  0  0
   11.8144   -6.8191    0.0000 C   0  0  0  0  0  0  0  0  0  0  0  0
   12.6333   -8.2458    0.0000 H   0  0  0  0  0  0  0  0  0  0  0  0
 16 17  1  0  0  0  0 
 17 13  1  0  0  0  0 
  7  8  1  0  0  0  0 
 13 18  1  1  0  0  0 
  8 10  1  0  0  0  0 
 14 19  1  6  0  0  0 
  9 10  2  0  0  0  0 
 17 20  1  0  0  0  0 
  3  6  1  0  0  0  0 
 20 21  1  0  0  0  0 
  5  4  1  0  0  0  0 
 21 22  1  0  0  0  0 
  5  6  1  0  0  0  0 
 22 23  1  0  0  0  0 
  9 12  1  0  0  0  0 
 23 24  1  0  0  0  0 
 23 25  2  0  0  0  0 
 10 14  1  0  0  0  0 
 12 26  2  0  0  0  0 
 13 11  1  0  0  0  0 
 15 27  2  0  0  0  0 
 11 12  1  0  0  0  0 
  8 28  1  1  0  0  0 
 13 14  1  0  0  0  0 
  2 29  1  1  0  0  0 
  1  2  1  0  0  0  0 
  3 30  1  0  0  0  0 
  1  4  1  0  0  0  0 
  3 31  1  0  0  0  0 
  2  3  1  0  0  0  0 
  5 32  1  1  0  0  0 
  5  9  1  0  0  0  0 
  6 33  1  6  0  0  0 
  6  7  1  0  0  0  0 
 11 34  1  1  0  0  0 
 14 15  1  0  0  0  0 
 20 35  1  6  0  0  0 
 15 16  1  0  0  0  0 
 17 36  1  6  0  0  0 
M  END
>  <MOLREGNO>
464528

>  <CHEMBLID>
CHEMBL465369

>  <SYNONYMS>
Lucidenic Acid C

>  <MAX_PHASE>
0

>  <MOLWEIGHT>
476.6

>  <ALOGP>
2.17

>  <PSA>
132.13

>  <HBA>
7

>  <HBD>
4

>  <RO5>
0

>  <RTB>
4

>  <RO3>
N

>  <ACD_MOST_APKA>
4.72

>  <ACD_MOST_BPKA>


>  <ACD_LOGP>
.86

>  <ACD_LOGD>
-1.79

>  <AROMATIC_RINGS>
0

>  <HEAVY_ATOMS>
34

>  <QED_WEIGHTED>
.49

>  <HBA_LIPINSKI>
7

>  <HBD_LIPINSKI>
4

>  <NUM_LIPINSKI_RO5_VIOLATIONS>
0

>  <MW_MONOISOTOPIC>
476.2774

>  <MOLECULAR_SPECIES>
ACID

>  <FULL_MOLFORMULA>
C27H40O7

$$$$

  CDK    9/16/09,9:20

 35 38  0  0  0  0  0  0  0  0999 V2000
    7.4500   -4.8292    0.0000 C   0  0  0  0  0  0  0  0  0  0  0  0
    7.4500   -5.6542    0.0000 C   0  0  0  0  0  0  0  0  0  0  0  0
    8.1620   -6.0625    0.0000 C   0  0  0  0  0  0  0  0  0  0  0  0
    8.1620   -4.4125    0.0000 C   0  0  0  0  0  0  0  0  0  0  0  0
    8.8740   -4.8292    0.0000 C   0  0  0  0  0  0  0  0  0  0  0  0
    8.8751   -5.6542    0.0000 C   0  0  0  0  0  0  0  0  0  0  0  0
    9.5861   -6.0635    0.0000 C   0  0  0  0  0  0  0  0  0  0  0  0
   10.3007   -5.6523    0.0000 C   0  0  0  0  0  0  0  0  0  0  0  0
    9.5840   -4.4135    0.0000 C   0  0  0  0  0  0  0  0  0  0  0  0
   10.3016   -4.8280    0.0000 C   0  0  0  0  0  0  0  0  0  0  0  0
   10.3003   -3.1736    0.0000 C   0  0  0  0  0  0  0  0  0  0  0  0
    9.5803   -3.5871    0.0000 C   0  0  0  0  0  0  0  0  0  0  0  0
   11.0179   -3.5881    0.0000 C   0  0  0  0  0  0  0  0  0  0  0  0
   11.0147   -4.4176    0.0000 C   0  0  0  0  0  0  0  0  0  0  0  0
   11.8027   -4.6769    0.0000 C   0  0  0  0  0  0  0  0  0  0  0  0
   12.2928   -4.0076    0.0000 C   0  0  0  0  0  0  0  0  0  0  0  0
   11.8077   -3.3348    0.0000 C   0  0  0  0  0  0  0  0  0  0  0  0
   11.0125   -2.7625    0.0000 C   0  0  0  0  0  0  0  0  0  0  0  0
   11.0083   -5.2417    0.0000 C   0  0  0  0  0  0  0  0  0  0  0  0
   12.2212   -2.6219    0.0000 C   0  0  0  0  0  0  0  0  0  0  0  0
   13.0462   -2.6235    0.0000 C   0  0  0  0  0  0  0  0  0  0  0  0
   13.4573   -3.3388    0.0000 C   0  0  0  0  0  0  0  0  0  0  0  0
   14.2823   -3.3405    0.0000 C   0  0  0  0  0  0  0  0  0  0  0  0
   14.6917   -4.0546    0.0000 O   0  0  0  0  0  0  0  0  0  0  0  0
   14.6946   -2.6257    0.0000 O   0  0  0  0  0  0  0  0  0  0  0  0
    8.8653   -3.1754    0.0000 O   0  0  0  0  0  0  0  0  0  0  0  0
   12.0546   -5.4625    0.0000 O   0  0  0  0  0  0  0  0  0  0  0  0
   11.0146   -6.0658    0.0000 O   0  0  0  0  0  0  0  0  0  0  0  0
    6.7361   -6.0677    0.0000 O   0  0  0  0  0  0  0  0  0  0  0  0
    7.7417   -6.7750    0.0000 C   0  0  0  0  0  0  0  0  0  0  0  0
    8.5667   -6.7750    0.0000 C   0  0  0  0  0  0  0  0  0  0  0  0
    8.8667   -4.0042    0.0000 C   0  0  0  0  0  0  0  0  0  0  0  0
    8.8708   -6.4750    0.0000 H   0  0  0  0  0  0  0  0  0  0  0  0
   11.8102   -1.9066    0.0000 C   0  0  0  0  0  0  0  0  0  0  0  0
   12.6292   -3.3333    0.0000 H   0  0  0  0  0  0  0  0  0  0  0  0
 15 16  1  0  0  0  0 
 16 17  1  0  0  0  0 
 17 13  1  0  0  0  0 
  7  8  1  0  0  0  0 
 13 18  1  1  0  0  0 
  8 10  1  0  0  0  0 
 14 19  1  6  0  0  0 
  9 10  2  0  0  0  0 
 17 20  1  0  0  0  0 
  3  6  1  0  0  0  0 
 20 21  1  0  0  0  0 
  5  4  1  0  0  0  0 
 21 22  1  0  0  0  0 
  5  6  1  0  0  0  0 
 22 23  1  0  0  0  0 
  9 12  1  0  0  0  0 
 23 24  1  0  0  0  0 
 23 25  2  0  0  0  0 
 10 14  1  0  0  0  0 
 12 26  2  0  0  0  0 
 13 11  1  0  0  0  0 
 15 27  2  0  0  0  0 
 11 12  1  0  0  0  0 
  8 28  1  1  0  0  0 
 13 14  1  0  0  0  0 
  2 29  2  0  0  0  0 
  1  2  1  0  0  0  0 
  3 30  1  0  0  0  0 
  1  4  1  0  0  0  0 
  3 31  1  0  0  0  0 
  2  3  1  0  0  0  0 
  5 32  1  1  0  0  0 
  5  9  1  0  0  0  0 
  6 33  1  6  0  0  0 
  6  7  1  0  0  0  0 
 20 34  1  6  0  0  0 
 14 15  1  0  0  0  0 
 17 35  1  6  0  0  0 
M  END
>  <MOLREGNO>
464516

>  <CHEMBLID>
CHEMBL460969

>  <SYNONYMS>
LUCIDENIC ACID A

>  <MAX_PHASE>
0

>  <MOLWEIGHT>
458.59

>  <ALOGP>
2.92

>  <PSA>
108.74

>  <HBA>
6

>  <HBD>
2

>  <RO5>
0

>  <RTB>
4

>  <RO3>
N

>  <ACD_MOST_APKA>
4.72

>  <ACD_MOST_BPKA>


>  <ACD_LOGP>
2.01

>  <ACD_LOGD>
-.64

>  <AROMATIC_RINGS>
0

>  <HEAVY_ATOMS>
33

>  <QED_WEIGHTED>
.67

>  <HBA_LIPINSKI>
6

>  <HBD_LIPINSKI>
2

>  <NUM_LIPINSKI_RO5_VIOLATIONS>
0

>  <MW_MONOISOTOPIC>
458.2668

>  <MOLECULAR_SPECIES>
ACID

>  <FULL_MOLFORMULA>
C27H38O6

$$$$

  SciTegic11201309402D

 27 32  0  0  0  0            999 V2000
    6.4788   -6.6533    0.0000 C   0  0
    7.2986   -6.5330    0.0000 C   0  0  2  0  0  0
    7.8066   -7.1777    0.0000 C   0  0
    8.6318   -7.0575    0.0000 C   0  0  1  0  0  0
    8.9319   -6.2896    0.0000 C   0  0  2  0  0  0
    8.4173   -5.6423    0.0000 C   0  0
    7.5987   -5.7653    0.0000 N   0  0
    7.0842   -5.1177    0.0000 C   0  0  1  0  0  0
    6.2729   -5.2438    0.0000 C   0  0
    5.9730   -6.0115    0.0000 C   0  0  2  0  0  0
    3.7774   -6.2507    0.0000 C   0  0
    3.7751   -7.0757    0.0000 C   0  0
    4.4854   -7.4892    0.0000 C   0  0
    4.4820   -5.8373    0.0000 C   0  0
    5.1988   -6.2437    0.0000 C   0  0
    5.2028   -7.0757    0.0000 C   0  0
    5.9916   -7.3251    0.0000 N   0  0
    7.6664   -4.5247    0.0000 C   0  0  1  0  0  0
    7.8317   -3.7222    0.0000 C   0  0
    9.7304   -6.5067    0.0000 C   0  0
    9.9381   -7.2997    0.0000 C   0  0
    6.4358   -3.7153    0.0000 O   0  0
    6.4535   -5.9984    0.0000 H   0  0
    8.0097   -6.2746    0.0000 H   0  0
    6.6274   -4.2281    0.0000 H   0  0
    6.7682   -5.7573    0.0000 C   0  0
    6.7839   -4.0544    0.0000 H   0  0
  3  4  1  0
  4  5  1  0
  5  6  1  0
  6  7  1  0
  2  3  1  0
  8  9  1  0
 10  9  1  1
 10  1  1  0
  8  7  1  0
  1  2  1  0
 11 12  2  0
 12 13  1  0
 13 16  2  0
 15 14  2  0
 14 11  1  0
 15 16  1  0
 16 17  1  0
 17  1  2  0
 10 15  1  0
  8 18  1  0
  4 18  1  0
 18 19  1  0
  5 20  1  6
 20 21  2  0
 10  5  1  0
 19 22  1  0
  2 22  1  0
  2 23  1  6
  4 24  1  1
  8 25  1  6
  7 26  1  0
 18 27  1  6
M  END
>  <MOLREGNO>
502609

>  <CHEMBLID>
CHEMBL522743

>  <SYNONYMS>
Koumine

>  <MAX_PHASE>
0

>  <MOLWEIGHT>
306.4

>  <ALOGP>
1.88

>  <PSA>
24.83

>  <HBA>
3

>  <HBD>
0

>  <RO5>
0

>  <RTB>
1

>  <RO3>
N

>  <ACD_MOST_APKA>


>  <ACD_MOST_BPKA>
8.67

>  <ACD_LOGP>
.9

>  <ACD_LOGD>
-.52

>  <AROMATIC_RINGS>
1

>  <HEAVY_ATOMS>
23

>  <QED_WEIGHTED>
.74

>  <HBA_LIPINSKI>
3

>  <HBD_LIPINSKI>
0

>  <NUM_LIPINSKI_RO5_VIOLATIONS>
0

>  <MW_MONOISOTOPIC>
306.1732

>  <MOLECULAR_SPECIES>
BASE

>  <FULL_MOLFORMULA>
C20H22N2O

$$$$

  SciTegic12231509382D

 29 34  0  0  0  0            999 V2000
   10.5519   -7.1402    0.0000 C   0  0  1  0  0  0
   11.2902   -7.2941    0.0000 C   0  0  2  0  0  0
   11.7609   -7.8136    0.0000 C   0  0  2  0  0  0
   11.2529   -8.3261    0.0000 C   0  0  1  0  0  0
   11.4444   -9.0246    0.0000 C   0  0  1  0  0  0
   11.9545   -8.5284    0.0000 C   0  0  1  0  0  0
   12.6531   -8.6931    0.0000 N   0  0
   12.4616   -7.9947    0.0000 C   0  0
   13.2513   -9.2704    0.0000 C   0  0
   10.7315   -9.4316    0.0000 C   0  0
   10.1129   -8.8932    0.0000 O   0  0
   10.0103   -7.7472    0.0000 C   0  0  2  0  0  0
   10.4400   -8.4731    0.0000 C   0  0
   12.1812   -7.1282    0.0000 C   0  0
   12.9904   -7.2890    0.0000 C   0  0
    9.7618   -6.8933    0.0000 C   0  0
    9.7560   -6.0657    0.0000 C   0  0
    9.0369   -5.6546    0.0000 C   0  0
    8.3219   -6.0719    0.0000 C   0  0
    8.3261   -6.8999    0.0000 C   0  0
    9.0470   -7.3105    0.0000 C   0  0
   10.5516   -5.8475    0.0000 N   0  0
   11.0352   -6.4681    0.0000 C   0  0
   11.8557   -6.4618    0.0000 O   0  0
   10.9597   -8.0614    0.0000 H   0  0
   12.2213   -9.4922    0.0000 H   0  0
   10.8431   -8.2256    0.0000 H   0  0
   10.7873   -7.4411    0.0000 H   0  0
   11.8671   -8.1109    0.0000 H   0  0
  2  1  1  0
  2  3  1  0
  3  4  1  0
  4  5  1  0
  6  5  1  0
  2  6  1  0
  6  7  1  0
  8  7  1  0
  3  8  1  0
  7  9  1  0
  5 10  1  0
 11 10  1  0
 12 11  1  0
  1 12  1  0
 12 13  1  0
  4 13  1  0
  3 14  1  6
 14 15  2  0
  1 16  1  1
 16 17  2  0
 17 18  1  0
 18 19  2  0
 20 19  1  0
 21 20  2  0
 16 21  1  0
 17 22  1  0
 23 22  1  0
  1 23  1  0
 23 24  2  0
 12 25  1  6
  6 26  1  1
  5 27  1  6
  4 28  1  6
  2 29  1  1
M  END
>  <MOLREGNO>
502608

>  <CHEMBLID>
CHEMBL521561

>  <SYNONYMS>
Gelsemine | Gelsemine Hydrochloride

>  <MAX_PHASE>
0

>  <MOLWEIGHT>
322.4

>  <ALOGP>
.89

>  <PSA>
41.57

>  <HBA>
3

>  <HBD>
1

>  <RO5>
0

>  <RTB>
1

>  <RO3>
N

>  <ACD_MOST_APKA>
4.3

>  <ACD_MOST_BPKA>
3.76

>  <ACD_LOGP>
1.95

>  <ACD_LOGD>
-1.14

>  <AROMATIC_RINGS>
1

>  <HEAVY_ATOMS>
24

>  <QED_WEIGHTED>
.78

>  <HBA_LIPINSKI>
4

>  <HBD_LIPINSKI>
1

>  <NUM_LIPINSKI_RO5_VIOLATIONS>
0

>  <MW_MONOISOTOPIC>
322.1681

>  <MOLECULAR_SPECIES>
ACID

>  <FULL_MOLFORMULA>
C20H22N2O2

$$$$

  CDK    9/16/09,9:19

 28 32  0  0  0  0  0  0  0  0999 V2000
    7.6451  -13.9850    0.0000 C   0  0  0  0  0  0  0  0  0  0  0  0
    7.0618  -13.4032    0.0000 C   0  0  0  0  0  0  0  0  0  0  0  0
    7.1508  -12.5784    0.0000 O   0  0  0  0  0  0  0  0  0  0  0  0
    8.4691  -13.8890    0.0000 C   0  0  0  0  0  0  0  0  0  0  0  0
    7.8468  -12.1329    0.0000 C   0  0  0  0  0  0  0  0  0  0  0  0
    5.4458  -14.2447    0.0000 C   0  0  0  0  0  0  0  0  0  0  0  0
    5.4446  -15.0659    0.0000 C   0  0  0  0  0  0  0  0  0  0  0  0
    6.1542  -15.4758    0.0000 C   0  0  0  0  0  0  0  0  0  0  0  0
    6.1524  -13.8349    0.0000 C   0  0  0  0  0  0  0  0  0  0  0  0
    6.8626  -14.2410    0.0000 C   0  0  0  0  0  0  0  0  0  0  0  0
    6.8629  -15.0660    0.0000 C   0  0  0  0  0  0  0  0  0  0  0  0
    7.6475  -15.3207    0.0000 N   0  0  0  0  0  0  0  0  0  0  0  0
    8.1323  -14.6532    0.0000 C   0  0  0  0  0  0  0  0  0  0  0  0
    8.6272  -12.4049    0.0000 C   0  0  0  0  0  0  0  0  0  0  0  0
    8.9052  -13.1834    0.0000 C   0  0  0  0  0  0  0  0  0  0  0  0
    9.7314  -13.1597    0.0000 N   0  0  0  0  0  0  0  0  0  0  0  0
    9.9642  -12.3665    0.0000 C   0  0  0  0  0  0  0  0  0  0  0  0
    9.2818  -11.9001    0.0000 C   0  0  0  0  0  0  0  0  0  0  0  0
    8.2845  -13.4009    0.0000 C   0  0  0  0  0  0  0  0  0  0  0  0
   10.7355  -12.0911    0.0000 C   0  0  0  0  0  0  0  0  0  0  0  0
   11.3596  -12.6214    0.0000 C   0  0  0  0  0  0  0  0  0  0  0  0
    8.9512  -14.6524    0.0000 O   0  0  0  0  0  0  0  0  0  0  0  0
    6.2414  -13.4009    0.0000 H   0  0  0  0  0  0  0  0  0  0  0  0
    9.6122  -13.5912    0.0000 H   0  0  0  0  0  0  0  0  0  0  0  0
    8.2101  -11.6927    0.0000 H   0  0  0  0  0  0  0  0  0  0  0  0
    7.9008  -16.0995    0.0000 O   0  0  0  0  0  0  0  0  0  0  0  0
    7.3529  -16.7083    0.0000 C   0  0  0  0  0  0  0  0  0  0  0  0
    9.2772  -11.0806    0.0000 H   0  0  0  0  0  0  0  0  0  0  0  0
  1 13  1  1  0  0  0 
  1 10  1  0  0  0  0 
 14 15  1  0  0  0  0 
  1  2  1  0  0  0  0 
  6  7  2  0  0  0  0 
  1  4  1  0  0  0  0 
  7  8  1  0  0  0  0 
  8 11  2  0  0  0  0 
 15 16  1  0  0  0  0 
 16 17  2  0  0  0  0 
 17 18  1  0  0  0  0 
 18 14  1  0  0  0  0 
  2 19  1  0  0  0  0 
 18 19  1  0  0  0  0 
 10  9  2  0  0  0  0 
 17 20  1  0  0  0  0 
  9  6  1  0  0  0  0 
 20 21  1  0  0  0  0 
 10 11  1  0  0  0  0 
 13 22  2  0  0  0  0 
  3  5  1  0  0  0  0 
  2 23  1  1  0  0  0 
  4 15  1  0  0  0  0 
 15 24  1  6  0  0  0 
  5 14  1  0  0  0  0 
 14 25  1  6  0  0  0 
  2  3  1  0  0  0  0 
 12 26  1  0  0  0  0 
 11 12  1  0  0  0  0 
 26 27  1  0  0  0  0 
 12 13  1  0  0  0  0 
 18 28  1  1  0  0  0 
M  END
>  <MOLREGNO>
502571

>  <CHEMBLID>
CHEMBL523429

>  <SYNONYMS>
Gelsenicine

>  <MAX_PHASE>
0

>  <MOLWEIGHT>
326.39

>  <ALOGP>
1.3

>  <PSA>
51.13

>  <HBA>
4

>  <HBD>
0

>  <RO5>
0

>  <RTB>
2

>  <RO3>
N

>  <ACD_MOST_APKA>


>  <ACD_MOST_BPKA>
7.17

>  <ACD_LOGP>
2.32

>  <ACD_LOGD>
2.12

>  <AROMATIC_RINGS>
1

>  <HEAVY_ATOMS>
24

>  <QED_WEIGHTED>
.82

>  <HBA_LIPINSKI>
5

>  <HBD_LIPINSKI>
0

>  <NUM_LIPINSKI_RO5_VIOLATIONS>
0

>  <MW_MONOISOTOPIC>
326.163

>  <MOLECULAR_SPECIES>
NEUTRAL

>  <FULL_MOLFORMULA>
C19H22N2O3

$$$$

  SciTegic01161211232D

 21 23  0  0  0  0            999 V2000
    5.4531  -10.2450    0.0000 C   0  0
    6.1682  -10.6564    0.0000 C   0  0
    6.8799  -10.2430    0.0000 C   0  0
    6.8778   -9.4182    0.0000 C   0  0
    6.1580   -9.0087    0.0000 C   0  0
    5.4492   -9.4245    0.0000 C   0  0
    6.1699  -11.4802    0.0000 O   0  0
    2.5866   -9.4242    0.0000 C   0  0
    2.5855  -10.2504    0.0000 C   0  0
    3.2993  -10.6627    0.0000 C   0  0
    3.2975   -9.0120    0.0000 C   0  0
    4.0119   -9.4205    0.0000 C   0  0
    4.0152  -10.2525    0.0000 C   0  0
    4.7334  -10.6632    0.0000 C   0  0
    4.7265   -8.9993    0.0000 C   0  0
    4.7356  -11.4870    0.0000 O   0  0
    3.2978  -11.4865    0.0000 O   0  0
    4.7221   -8.1756    0.0000 O   0  0
    7.5920   -9.0005    0.0000 C   0  0
    8.3073   -9.4093    0.0000 O   0  0
    7.5884   -8.1767    0.0000 O   0  0
  2  3  1  0
 12 11  2  0
 11  8  1  0
 12 13  1  0
  5  6  2  0
  6  1  1  0
  1  2  2  0
  2  7  1  0
 12 15  1  0
 13 14  1  0
 14  1  1  0
  6 15  1  0
  3  4  2  0
 14 16  2  0
 10 17  1  0
  8  9  2  0
 15 18  2  0
  4  5  1  0
  9 10  1  0
 10 13  2  0
 19 20  1  0
 19 21  2  0
  4 19  1  0
M  END
>  <MOLREGNO>
61715

>  <CHEMBLID>
CHEMBL418068

>  <SYNONYMS>
Rhein

>  <MAX_PHASE>
0

>  <MOLWEIGHT>
284.22

>  <ALOGP>
1.95

>  <PSA>
111.9

>  <HBA>
6

>  <HBD>
3

>  <RO5>
0

>  <RTB>
1

>  <RO3>
N

>  <ACD_MOST_APKA>
3.17

>  <ACD_MOST_BPKA>


>  <ACD_LOGP>
4.29

>  <ACD_LOGD>
.1

>  <AROMATIC_RINGS>
2

>  <HEAVY_ATOMS>
21

>  <QED_WEIGHTED>
.74

>  <HBA_LIPINSKI>
6

>  <HBD_LIPINSKI>
3

>  <NUM_LIPINSKI_RO5_VIOLATIONS>
0

>  <MW_MONOISOTOPIC>
284.0321

>  <MOLECULAR_SPECIES>
ACID

>  <FULL_MOLFORMULA>
C15H8O6

$$$$

  Mrv0541 04051115152D          

 20 22  0  0  0  0            999 V2000
   -1.4481   -0.7372    0.0000 C   0  0  0  0  0  0  0  0  0  0  0  0
   -1.4481   -1.5622    0.0000 O   0  0  0  0  0  0  0  0  0  0  0  0
   -2.1625   -0.3247    0.0000 C   0  0  0  0  0  0  0  0  0  0  0  0
   -2.1625    0.5003    0.0000 C   0  0  0  0  0  0  0  0  0  0  0  0
   -2.8770    0.9128    0.0000 O   0  0  0  0  0  0  0  0  0  0  0  0
   -1.4481    0.9128    0.0000 C   0  0  0  0  0  0  0  0  0  0  0  0
   -0.7336    0.5003    0.0000 C   0  0  0  0  0  0  0  0  0  0  0  0
   -0.0191    0.9128    0.0000 C   0  0  0  0  0  0  0  0  0  0  0  0
   -0.0191    1.7378    0.0000 O   0  0  0  0  0  0  0  0  0  0  0  0
    0.6953    0.5003    0.0000 C   0  0  0  0  0  0  0  0  0  0  0  0
    1.4098    0.9128    0.0000 C   0  0  0  0  0  0  0  0  0  0  0  0
    2.1243    0.5003    0.0000 C   0  0  0  0  0  0  0  0  0  0  0  0
    2.8388    0.9128    0.0000 C   0  0  0  0  0  0  0  0  0  0  0  0
    2.1243   -0.3247    0.0000 C   0  0  0  0  0  0  0  0  0  0  0  0
    1.4098   -0.7372    0.0000 C   0  0  0  0  0  0  0  0  0  0  0  0
    1.4098   -1.5622    0.0000 O   0  0  0  0  0  0  0  0  0  0  0  0
    0.6953   -0.3247    0.0000 C   0  0  0  0  0  0  0  0  0  0  0  0
   -0.0191   -0.7372    0.0000 C   0  0  0  0  0  0  0  0  0  0  0  0
   -0.0191   -1.5622    0.0000 O   0  0  0  0  0  0  0  0  0  0  0  0
   -0.7336   -0.3247    0.0000 C   0  0  0  0  0  0  0  0  0  0  0  0
  1  2  1  0  0  0  0
  1  3  2  0  0  0  0
  1 20  1  0  0  0  0
  3  4  1  0  0  0  0
  4  5  1  0  0  0  0
  4  6  2  0  0  0  0
  6  7  1  0  0  0  0
  7  8  1  0  0  0  0
 20  7  2  0  0  0  0
  8  9  2  0  0  0  0
  8 10  1  0  0  0  0
 10 11  2  0  0  0  0
 17 10  1  0  0  0  0
 11 12  1  0  0  0  0
 13 12  1  0  0  0  0
 14 12  2  0  0  0  0
 14 15  1  0  0  0  0
 15 16  1  0  0  0  0
 15 17  2  0  0  0  0
 17 18  1  0  0  0  0
 18 19  2  0  0  0  0
 18 20  1  0  0  0  0
M  END
>  <MOLREGNO>
61174

>  <CHEMBLID>
CHEMBL289277

>  <SYNONYMS>
Emodin

>  <MAX_PHASE>
0

>  <MOLWEIGHT>
270.24

>  <ALOGP>
2.57

>  <PSA>
94.83

>  <HBA>
5

>  <HBD>
3

>  <RO5>
0

>  <RTB>
0

>  <RO3>
N

>  <ACD_MOST_APKA>
6.39

>  <ACD_MOST_BPKA>


>  <ACD_LOGP>
3.64

>  <ACD_LOGD>
1.61

>  <AROMATIC_RINGS>
2

>  <HEAVY_ATOMS>
20

>  <QED_WEIGHTED>
.68

>  <HBA_LIPINSKI>
5

>  <HBD_LIPINSKI>
3

>  <NUM_LIPINSKI_RO5_VIOLATIONS>
0

>  <MW_MONOISOTOPIC>
270.0528

>  <MOLECULAR_SPECIES>
ACID

>  <FULL_MOLFORMULA>
C15H10O5

$$$$

  CDK    9/16/09,10:8

 21 23  0  0  0  0  0  0  0  0999 V2000
   -4.7360   -8.7844    0.0000 C   0  0  0  0  0  0  0  0  0  0  0  0
   -4.7372   -9.6084    0.0000 C   0  0  0  0  0  0  0  0  0  0  0  0
   -4.0252  -10.0195    0.0000 C   0  0  0  0  0  0  0  0  0  0  0  0
   -4.0270   -8.3733    0.0000 C   0  0  0  0  0  0  0  0  0  0  0  0
   -3.3147   -8.7808    0.0000 C   0  0  0  0  0  0  0  0  0  0  0  0
   -3.3112   -9.6104    0.0000 C   0  0  0  0  0  0  0  0  0  0  0  0
   -2.5951  -10.0200    0.0000 C   0  0  0  0  0  0  0  0  0  0  0  0
   -2.6018   -8.3608    0.0000 C   0  0  0  0  0  0  0  0  0  0  0  0
   -1.8810   -8.7750    0.0000 C   0  0  0  0  0  0  0  0  0  0  0  0
   -1.8781   -9.6042    0.0000 C   0  0  0  0  0  0  0  0  0  0  0  0
   -1.1597  -10.0146    0.0000 C   0  0  0  0  0  0  0  0  0  0  0  0
   -0.4436   -9.5968    0.0000 C   0  0  0  0  0  0  0  0  0  0  0  0
   -0.4504   -8.7643    0.0000 C   0  0  0  0  0  0  0  0  0  0  0  0
   -1.1695   -8.3577    0.0000 C   0  0  0  0  0  0  0  0  0  0  0  0
   -2.6063   -7.5392    0.0000 O   0  0  0  0  0  0  0  0  0  0  0  0
   -2.5925  -10.8416    0.0000 O   0  0  0  0  0  0  0  0  0  0  0  0
   -1.1559  -10.8362    0.0000 O   0  0  0  0  0  0  0  0  0  0  0  0
   -4.0267  -10.8411    0.0000 O   0  0  0  0  0  0  0  0  0  0  0  0
   -5.4476   -8.3738    0.0000 C   0  0  0  0  0  0  0  0  0  0  0  0
    0.2575   -8.3474    0.0000 O   0  0  0  0  0  0  0  0  0  0  0  0
    0.9668   -8.7555    0.0000 C   0  0  0  0  0  0  0  0  0  0  0  0
  9 10  2  0  0  0  0 
  5  6  1  0  0  0  0 
 10 11  1  0  0  0  0 
 11 12  2  0  0  0  0 
  2  3  1  0  0  0  0 
 12 13  1  0  0  0  0 
  3  6  2  0  0  0  0 
 13 14  2  0  0  0  0 
 14  9  1  0  0  0  0 
  1  2  2  0  0  0  0 
  8 15  2  0  0  0  0 
  5  8  1  0  0  0  0 
  7 16  2  0  0  0  0 
  6  7  1  0  0  0  0 
 11 17  1  0  0  0  0 
  7 10  1  0  0  0  0 
  3 18  1  0  0  0  0 
  9  8  1  0  0  0  0 
  1 19  1  0  0  0  0 
  5  4  2  0  0  0  0 
 13 20  1  0  0  0  0 
  4  1  1  0  0  0  0 
 20 21  1  0  0  0  0 
M  END
>  <MOLREGNO>
61248

>  <CHEMBLID>
CHEMBL42624

>  <SYNONYMS>
Physcion

>  <MAX_PHASE>
0

>  <MOLWEIGHT>
284.26

>  <ALOGP>
2.79

>  <PSA>
83.83

>  <HBA>
5

>  <HBD>
2

>  <RO5>
0

>  <RTB>
1

>  <RO3>
N

>  <ACD_MOST_APKA>
6.23

>  <ACD_MOST_BPKA>


>  <ACD_LOGP>
5.08

>  <ACD_LOGD>
3.17

>  <AROMATIC_RINGS>
2

>  <HEAVY_ATOMS>
21

>  <QED_WEIGHTED>
.84

>  <HBA_LIPINSKI>
5

>  <HBD_LIPINSKI>
2

>  <NUM_LIPINSKI_RO5_VIOLATIONS>
0

>  <MW_MONOISOTOPIC>
284.0685

>  <MOLECULAR_SPECIES>
ACID

>  <FULL_MOLFORMULA>
C16H12O5

$$$$

  CDK    9/16/09,10:8

 19 21  0  0  0  0  0  0  0  0999 V2000
    2.8888    1.5592    0.0000 C   0  0  0  0  0  0  0  0  0  0  0  0
    2.8877    0.7358    0.0000 C   0  0  0  0  0  0  0  0  0  0  0  0
    3.5990    0.3249    0.0000 C   0  0  0  0  0  0  0  0  0  0  0  0
    3.5973    1.9700    0.0000 C   0  0  0  0  0  0  0  0  0  0  0  0
    4.3092    1.5628    0.0000 C   0  0  0  0  0  0  0  0  0  0  0  0
    4.3126    0.7338    0.0000 C   0  0  0  0  0  0  0  0  0  0  0  0
    5.0284    0.3244    0.0000 C   0  0  0  0  0  0  0  0  0  0  0  0
    5.0215    1.9825    0.0000 C   0  0  0  0  0  0  0  0  0  0  0  0
    5.7418    1.5686    0.0000 C   0  0  0  0  0  0  0  0  0  0  0  0
    5.7447    0.7399    0.0000 C   0  0  0  0  0  0  0  0  0  0  0  0
    6.4627    0.3298    0.0000 C   0  0  0  0  0  0  0  0  0  0  0  0
    7.1783    0.7474    0.0000 C   0  0  0  0  0  0  0  0  0  0  0  0
    7.1714    1.5793    0.0000 C   0  0  0  0  0  0  0  0  0  0  0  0
    6.4529    1.9856    0.0000 C   0  0  0  0  0  0  0  0  0  0  0  0
    5.0170    2.8036    0.0000 O   0  0  0  0  0  0  0  0  0  0  0  0
    5.0308   -0.4966    0.0000 O   0  0  0  0  0  0  0  0  0  0  0  0
    6.4665   -0.4912    0.0000 O   0  0  0  0  0  0  0  0  0  0  0  0
    3.5976   -0.4961    0.0000 O   0  0  0  0  0  0  0  0  0  0  0  0
    7.8789    1.9959    0.0000 C   0  0  0  0  0  0  0  0  0  0  0  0
  5  4  2  0  0  0  0 
  4  1  1  0  0  0  0 
  9 10  2  0  0  0  0 
  5  6  1  0  0  0  0 
 10 11  1  0  0  0  0 
 11 12  2  0  0  0  0 
  2  3  1  0  0  0  0 
 12 13  1  0  0  0  0 
  3  6  2  0  0  0  0 
 13 14  2  0  0  0  0 
 14  9  1  0  0  0  0 
  1  2  2  0  0  0  0 
  8 15  2  0  0  0  0 
  5  8  1  0  0  0  0 
  7 16  2  0  0  0  0 
  6  7  1  0  0  0  0 
 11 17  1  0  0  0  0 
  7 10  1  0  0  0  0 
  3 18  1  0  0  0  0 
  9  8  1  0  0  0  0 
 13 19  1  0  0  0  0 
M  END
>  <MOLREGNO>
61469

>  <CHEMBLID>
CHEMBL41092

>  <SYNONYMS>
Chrysophanol

>  <MAX_PHASE>
0

>  <MOLWEIGHT>
254.24

>  <ALOGP>
2.81

>  <PSA>
74.6

>  <HBA>
4

>  <HBD>
2

>  <RO5>
0

>  <RTB>
0

>  <RO3>
N

>  <ACD_MOST_APKA>
6.63

>  <ACD_MOST_BPKA>


>  <ACD_LOGP>
4.72

>  <ACD_LOGD>
3.24

>  <AROMATIC_RINGS>
2

>  <HEAVY_ATOMS>
19

>  <QED_WEIGHTED>
.76

>  <HBA_LIPINSKI>
4

>  <HBD_LIPINSKI>
2

>  <NUM_LIPINSKI_RO5_VIOLATIONS>
0

>  <MW_MONOISOTOPIC>
254.0579

>  <MOLECULAR_SPECIES>
NEUTRAL

>  <FULL_MOLFORMULA>
C15H10O4

$$$$

  CDK    9/16/09,10:8

 20 22  0  0  0  0  0  0  0  0999 V2000
   -4.5281    1.5020    0.0000 C   0  0  0  0  0  0  0  0  0  0  0  0
   -4.5292    0.6781    0.0000 C   0  0  0  0  0  0  0  0  0  0  0  0
   -3.8174    0.2670    0.0000 C   0  0  0  0  0  0  0  0  0  0  0  0
   -3.8192    1.9130    0.0000 C   0  0  0  0  0  0  0  0  0  0  0  0
   -3.1068    1.5056    0.0000 C   0  0  0  0  0  0  0  0  0  0  0  0
   -3.1034    0.6760    0.0000 C   0  0  0  0  0  0  0  0  0  0  0  0
   -2.3873    0.2665    0.0000 C   0  0  0  0  0  0  0  0  0  0  0  0
   -2.3941    1.9256    0.0000 C   0  0  0  0  0  0  0  0  0  0  0  0
   -1.6734    1.5115    0.0000 C   0  0  0  0  0  0  0  0  0  0  0  0
   -1.6705    0.6823    0.0000 C   0  0  0  0  0  0  0  0  0  0  0  0
   -0.9521    0.2719    0.0000 C   0  0  0  0  0  0  0  0  0  0  0  0
   -0.2361    0.6897    0.0000 C   0  0  0  0  0  0  0  0  0  0  0  0
   -0.2430    1.5220    0.0000 C   0  0  0  0  0  0  0  0  0  0  0  0
   -0.9619    1.9286    0.0000 C   0  0  0  0  0  0  0  0  0  0  0  0
   -2.3986    2.7471    0.0000 O   0  0  0  0  0  0  0  0  0  0  0  0
   -2.3848   -0.5550    0.0000 O   0  0  0  0  0  0  0  0  0  0  0  0
   -0.9483   -0.5496    0.0000 O   0  0  0  0  0  0  0  0  0  0  0  0
   -3.8189   -0.5545    0.0000 O   0  0  0  0  0  0  0  0  0  0  0  0
    0.4649    1.9390    0.0000 C   0  0  0  0  0  0  0  0  0  0  0  0
    1.1799    1.5343    0.0000 O   0  0  0  0  0  0  0  0  0  0  0  0
  4  1  1  0  0  0  0 
  9 10  2  0  0  0  0 
  5  6  1  0  0  0  0 
 10 11  1  0  0  0  0 
 11 12  2  0  0  0  0 
  2  3  1  0  0  0  0 
 12 13  1  0  0  0  0 
  3  6  2  0  0  0  0 
 13 14  2  0  0  0  0 
 14  9  1  0  0  0  0 
  1  2  2  0  0  0  0 
  8 15  2  0  0  0  0 
  5  8  1  0  0  0  0 
  7 16  2  0  0  0  0 
  6  7  1  0  0  0  0 
 11 17  1  0  0  0  0 
  7 10  1  0  0  0  0 
  3 18  1  0  0  0  0 
  9  8  1  0  0  0  0 
 13 19  1  0  0  0  0 
  5  4  2  0  0  0  0 
 19 20  1  0  0  0  0 
M  END
>  <MOLREGNO>
61756

>  <CHEMBLID>
CHEMBL40275

>  <SYNONYMS>
aloe emodin

>  <MAX_PHASE>
0

>  <MOLWEIGHT>
270.24

>  <ALOGP>
1.72

>  <PSA>
94.83

>  <HBA>
5

>  <HBD>
3

>  <RO5>
0

>  <RTB>
1

>  <RO3>
N

>  <ACD_MOST_APKA>
6.3

>  <ACD_MOST_BPKA>


>  <ACD_LOGP>
3.25

>  <ACD_LOGD>
1.52

>  <AROMATIC_RINGS>
2

>  <HEAVY_ATOMS>
20

>  <QED_WEIGHTED>
.73

>  <HBA_LIPINSKI>
5

>  <HBD_LIPINSKI>
3

>  <NUM_LIPINSKI_RO5_VIOLATIONS>
0

>  <MW_MONOISOTOPIC>
270.0528

>  <MOLECULAR_SPECIES>
ACID

>  <FULL_MOLFORMULA>
C15H10O5

$$$$

  SciTegic01161211222D

 12 12  0  0  0  0            999 V2000
   10.2592   -1.7490    0.0000 C   0  0
   10.2581   -2.5758    0.0000 C   0  0
   10.9724   -2.9884    0.0000 C   0  0
   11.6884   -2.5754    0.0000 C   0  0
   11.6856   -1.7453    0.0000 C   0  0
   10.9707   -1.3364    0.0000 C   0  0
   10.9678   -0.5081    0.0000 C   0  0
   11.6805   -0.0937    0.0000 O   0  0
   10.2525   -0.0980    0.0000 O   0  0
   12.4032   -2.9864    0.0000 O   0  0
   10.9722   -3.8130    0.0000 O   0  0
    9.5437   -2.9875    0.0000 O   0  0
  6  1  1  0
  1  2  2  0
  3  4  2  0
  7  8  1  0
  7  9  2  0
  6  7  1  0
  4  5  1  0
  4 10  1  0
  2  3  1  0
  3 11  1  0
  5  6  2  0
  2 12  1  0
M  END
>  <MOLREGNO>
58428

>  <CHEMBLID>
CHEMBL288114

>  <SYNONYMS>
Gallate | Gallic acid

>  <MAX_PHASE>
0

>  <MOLWEIGHT>
170.12

>  <ALOGP>
.73

>  <PSA>
97.99

>  <HBA>
5

>  <HBD>
4

>  <RO5>
0

>  <RTB>
1

>  <RO3>
N

>  <ACD_MOST_APKA>
4.33

>  <ACD_MOST_BPKA>


>  <ACD_LOGP>
.53

>  <ACD_LOGD>
-2.46

>  <AROMATIC_RINGS>
1

>  <HEAVY_ATOMS>
12

>  <QED_WEIGHTED>
.47

>  <HBA_LIPINSKI>
5

>  <HBD_LIPINSKI>
4

>  <NUM_LIPINSKI_RO5_VIOLATIONS>
0

>  <MW_MONOISOTOPIC>
170.0215

>  <MOLECULAR_SPECIES>
ACID

>  <FULL_MOLFORMULA>
C7H6O5

$$$$

  CDK    9/16/09,9:20

 30 32  0  0  0  0  0  0  0  0999 V2000
   -2.8072    2.0413    0.0000 C   0  0  0  0  0  0  0  0  0  0  0  0
   -1.9959    1.8756    0.0000 C   0  0  0  0  0  0  0  0  0  0  0  0
   -1.6184    1.1424    0.0000 C   0  0  0  0  0  0  0  0  0  0  0  0
   -3.4218    0.6884    0.0000 C   0  0  0  0  0  0  0  0  0  0  0  0
   -3.4355    1.5176    0.0000 C   0  0  0  0  0  0  0  0  0  0  0  0
   -4.2285    1.7608    0.0000 C   0  0  0  0  0  0  0  0  0  0  0  0
   -4.7047    1.0818    0.0000 C   0  0  0  0  0  0  0  0  0  0  0  0
   -4.2062    0.4191    0.0000 C   0  0  0  0  0  0  0  0  0  0  0  0
   -4.9219    0.0166    0.0000 C   0  0  0  0  0  0  0  0  0  0  0  0
   -3.9980   -0.3687    0.0000 O   0  0  0  0  0  0  0  0  0  0  0  0
   -1.9618    0.3923    0.0000 C   0  0  0  0  0  0  0  0  0  0  0  0
   -2.7630    0.1888    0.0000 C   0  0  0  0  0  0  0  0  0  0  0  0
   -2.8172   -0.6362    0.0000 O   0  0  0  0  0  0  0  0  0  0  0  0
   -2.0493   -0.9426    0.0000 C   0  0  0  0  0  0  0  0  0  0  0  0
   -1.5207   -0.3069    0.0000 C   0  0  0  0  0  0  0  0  0  0  0  0
   -2.5521    0.9861    0.0000 H   0  0  0  0  0  0  0  0  0  0  0  0
   -3.4262   -0.1285    0.0000 H   0  0  0  0  0  0  0  0  0  0  0  0
   -1.1435    0.3936    0.0000 H   0  0  0  0  0  0  0  0  0  0  0  0
   -1.8474   -1.7377    0.0000 O   0  0  0  0  0  0  0  0  0  0  0  0
   -0.7022   -0.3606    0.0000 C   0  0  0  0  0  0  0  0  0  0  0  0
   -3.0075    2.8368    0.0000 C   0  0  0  0  0  0  0  0  0  0  0  0
   -0.7982    1.1613    0.0000 O   0  0  0  0  0  0  0  0  0  0  0  0
   -0.4046    1.8810    0.0000 C   0  0  0  0  0  0  0  0  0  0  0  0
    0.4155    1.9000    0.0000 C   0  0  0  0  0  0  0  0  0  0  0  0
   -0.8311    2.5818    0.0000 O   0  0  0  0  0  0  0  0  0  0  0  0
    0.8419    1.1992    0.0000 C   0  0  0  0  0  0  0  0  0  0  0  0
    0.8092    2.6196    0.0000 C   0  0  0  0  0  0  0  0  0  0  0  0
    1.6620    1.2180    0.0000 C   0  0  0  0  0  0  0  0  0  0  0  0
    2.0885    0.5173    0.0000 O   0  0  0  0  0  0  0  0  0  0  0  0
   -3.8530    2.2330    0.0000 H   0  0  0  0  0  0  0  0  0  0  0  0
 13 14  1  0  0  0  0 
 14 15  1  0  0  0  0 
 15 11  1  0  0  0  0 
  5  6  1  0  0  0  0 
 12 16  1  1  0  0  0 
  6  7  2  0  0  0  0 
  4 17  1  6  0  0  0 
  7  8  1  0  0  0  0 
 11 18  1  6  0  0  0 
  8  4  1  0  0  0  0 
 14 19  2  0  0  0  0 
  3 11  1  0  0  0  0 
 15 20  2  0  0  0  0 
  8  9  1  1  0  0  0 
  1 21  2  0  0  0  0 
  4  5  1  0  0  0  0 
  3 22  1  1  0  0  0 
  8 10  1  0  0  0  0 
 22 23  1  0  0  0  0 
 11 12  1  0  0  0  0 
 23 24  1  0  0  0  0 
 23 25  2  0  0  0  0 
  1  2  1  0  0  0  0 
 24 26  2  0  0  0  0 
  5  1  1  0  0  0  0 
 24 27  1  0  0  0  0 
  2  3  1  0  0  0  0 
 26 28  1  0  0  0  0 
  4 12  1  0  0  0  0 
 28 29  1  0  0  0  0 
 12 13  1  0  0  0  0 
  5 30  1  6  0  0  0 
M  END
>  <MOLREGNO>
504762

>  <CHEMBLID>
CHEMBL463969

>  <SYNONYMS>
Eupalinilide B

>  <MAX_PHASE>
0

>  <MOLWEIGHT>
360.4

>  <ALOGP>
1.49

>  <PSA>
93.06

>  <HBA>
6

>  <HBD>
2

>  <RO5>
0

>  <RTB>
4

>  <RO3>
N

>  <ACD_MOST_APKA>
13.57

>  <ACD_MOST_BPKA>


>  <ACD_LOGP>
1.19

>  <ACD_LOGD>
1.19

>  <AROMATIC_RINGS>
0

>  <HEAVY_ATOMS>
26

>  <QED_WEIGHTED>
.45

>  <HBA_LIPINSKI>
6

>  <HBD_LIPINSKI>
2

>  <NUM_LIPINSKI_RO5_VIOLATIONS>
0

>  <MW_MONOISOTOPIC>
360.1573

>  <MOLECULAR_SPECIES>
NEUTRAL

>  <FULL_MOLFORMULA>
C20H24O6

$$$$

  CDK    9/16/09,9:20

 32 35  0  0  0  0  0  0  0  0999 V2000
    4.9717    2.0125    0.0000 C   0  0  0  0  0  0  0  0  0  0  0  0
    5.7813    1.8470    0.0000 C   0  0  0  0  0  0  0  0  0  0  0  0
    6.1581    1.1153    0.0000 C   0  0  0  0  0  0  0  0  0  0  0  0
    4.3583    0.6622    0.0000 C   0  0  0  0  0  0  0  0  0  0  0  0
    4.3446    1.4898    0.0000 C   0  0  0  0  0  0  0  0  0  0  0  0
    3.5533    1.7325    0.0000 C   0  0  0  0  0  0  0  0  0  0  0  0
    3.0779    1.0549    0.0000 C   0  0  0  0  0  0  0  0  0  0  0  0
    3.5755    0.3935    0.0000 C   0  0  0  0  0  0  0  0  0  0  0  0
    5.8155    0.3667    0.0000 C   0  0  0  0  0  0  0  0  0  0  0  0
    5.0157    0.1636    0.0000 C   0  0  0  0  0  0  0  0  0  0  0  0
    4.9618   -0.6597    0.0000 O   0  0  0  0  0  0  0  0  0  0  0  0
    5.7280   -0.9655    0.0000 C   0  0  0  0  0  0  0  0  0  0  0  0
    6.2556   -0.3311    0.0000 C   0  0  0  0  0  0  0  0  0  0  0  0
    5.2263    0.9593    0.0000 H   0  0  0  0  0  0  0  0  0  0  0  0
    4.3539   -0.1530    0.0000 H   0  0  0  0  0  0  0  0  0  0  0  0
    6.6321    0.3680    0.0000 H   0  0  0  0  0  0  0  0  0  0  0  0
    5.9296   -1.7590    0.0000 O   0  0  0  0  0  0  0  0  0  0  0  0
    7.0726   -0.3847    0.0000 C   0  0  0  0  0  0  0  0  0  0  0  0
    6.9766    1.1341    0.0000 O   0  0  0  0  0  0  0  0  0  0  0  0
    7.3695    1.8524    0.0000 C   0  0  0  0  0  0  0  0  0  0  0  0
    8.1879    1.8713    0.0000 C   0  0  0  0  0  0  0  0  0  0  0  0
    6.9439    2.5518    0.0000 O   0  0  0  0  0  0  0  0  0  0  0  0
    8.6136    1.1719    0.0000 C   0  0  0  0  0  0  0  0  0  0  0  0
    8.5808    2.5896    0.0000 C   0  0  0  0  0  0  0  0  0  0  0  0
    9.4320    1.1908    0.0000 C   0  0  0  0  0  0  0  0  0  0  0  0
    9.8575    0.4915    0.0000 O   0  0  0  0  0  0  0  0  0  0  0  0
    3.9280    2.2038    0.0000 H   0  0  0  0  0  0  0  0  0  0  0  0
    3.3355   -0.3892    0.0000 C   0  0  0  0  0  0  0  0  0  0  0  0
    3.3367    2.5305    0.0000 O   0  0  0  0  0  0  0  0  0  0  0  0
    4.1264    2.7455    0.0000 C   0  0  0  0  0  0  0  0  0  0  0  0
    5.1808    2.8075    0.0000 O   0  0  0  0  0  0  0  0  0  0  0  0
    2.7579    1.9516    0.0000 H   0  0  0  0  0  0  0  0  0  0  0  0
  4 15  1  6  0  0  0 
  5  6  1  0  0  0  0 
  9 16  1  6  0  0  0 
  6  7  1  0  0  0  0 
 12 17  2  0  0  0  0 
  7  8  2  0  0  0  0 
 13 18  2  0  0  0  0 
  8  4  1  0  0  0  0 
  3 19  1  1  0  0  0 
  9 10  1  0  0  0  0 
 19 20  1  0  0  0  0 
  3  9  1  0  0  0  0 
 20 21  1  0  0  0  0 
  4  5  1  0  0  0  0 
 20 22  2  0  0  0  0 
 21 23  2  0  0  0  0 
  1  2  1  0  0  0  0 
 21 24  1  0  0  0  0 
  5  1  1  0  0  0  0 
 23 25  1  0  0  0  0 
 10 11  1  0  0  0  0 
 25 26  1  0  0  0  0 
 11 12  1  0  0  0  0 
  5 27  1  6  0  0  0 
 12 13  1  0  0  0  0 
  8 28  1  0  0  0  0 
 13  9  1  0  0  0  0 
  6 29  1  0  0  0  0 
  2  3  1  0  0  0  0 
 29 30  1  0  0  0  0 
  1 30  1  0  0  0  0 
 10 14  1  1  0  0  0 
  1 31  1  6  0  0  0 
  4 10  1  0  0  0  0 
  6 32  1  6  0  0  0 
M  END
>  <MOLREGNO>
504763

>  <CHEMBLID>
CHEMBL518078

>  <SYNONYMS>
Eupalinilide C

>  <MAX_PHASE>
0

>  <MOLWEIGHT>
376.4

>  <ALOGP>
.47

>  <PSA>
102.29

>  <HBA>
7

>  <HBD>
2

>  <RO5>
0

>  <RTB>
4

>  <RO3>
N

>  <ACD_MOST_APKA>
13.38

>  <ACD_MOST_BPKA>


>  <ACD_LOGP>
-.58

>  <ACD_LOGD>
-.58

>  <AROMATIC_RINGS>
0

>  <HEAVY_ATOMS>
27

>  <QED_WEIGHTED>
.42

>  <HBA_LIPINSKI>
7

>  <HBD_LIPINSKI>
2

>  <NUM_LIPINSKI_RO5_VIOLATIONS>
0

>  <MW_MONOISOTOPIC>
376.1522

>  <MOLECULAR_SPECIES>
NEUTRAL

>  <FULL_MOLFORMULA>
C20H24O7

$$$$

  CDK    9/16/09,9:20

 34 37  0  0  0  0  0  0  0  0999 V2000
    7.0405    3.2614    0.0000 C   0  0  0  0  0  0  0  0  0  0  0  0
    6.4567    2.6776    0.0000 S   0  0  0  0  0  0  0  0  0  0  0  0
    6.6677    1.8828    0.0000 C   0  0  0  0  0  0  0  0  0  0  0  0
    7.4667    1.6676    0.0000 O   0  0  0  0  0  0  0  0  0  0  0  0
    6.0840    1.2990    0.0000 O   0  0  0  0  0  0  0  0  0  0  0  0
    6.3410    0.5145    0.0000 C   0  0  0  0  0  0  0  0  0  0  0  0
    5.7880   -0.0977    0.0000 C   0  0  0  0  0  0  0  0  0  0  0  0
    4.9699   -0.0129    0.0000 C   0  0  0  0  0  0  0  0  0  0  0  0
    4.6324   -0.7672    0.0000 C   0  0  0  0  0  0  0  0  0  0  0  0
    5.2446   -1.3202    0.0000 C   0  0  0  0  0  0  0  0  0  0  0  0
    5.9604   -0.9078    0.0000 C   0  0  0  0  0  0  0  0  0  0  0  0
    6.6761   -1.3202    0.0000 C   0  0  0  0  0  0  0  0  0  0  0  0
    6.6761   -2.1451    0.0000 O   0  0  0  0  0  0  0  0  0  0  0  0
    5.9604   -2.5575    0.0000 C   0  0  0  0  0  0  0  0  0  0  0  0
    5.2446   -2.1451    0.0000 C   0  0  0  0  0  0  0  0  0  0  0  0
    4.4197   -2.1451    0.0000 C   0  0  0  0  0  0  0  0  0  0  0  0
    3.9685   -2.8273    0.0000 O   0  0  0  0  0  0  0  0  0  0  0  0
    4.0864   -1.3814    0.0000 O   0  0  0  0  0  0  0  0  0  0  0  0
    7.3877   -0.9078    0.0000 O   0  0  0  0  0  0  0  0  0  0  0  0
    8.1035   -1.3202    0.0000 C   0  0  0  0  0  0  0  0  0  0  0  0
    8.8193   -0.9078    0.0000 C   0  0  0  0  0  0  0  0  0  0  0  0
    9.5309   -1.3202    0.0000 C   0  0  0  0  0  0  0  0  0  0  0  0
    9.5309   -2.1451    0.0000 C   0  0  0  0  0  0  0  0  0  0  0  0
    8.8193   -2.5575    0.0000 C   0  0  0  0  0  0  0  0  0  0  0  0
    8.1035   -2.1451    0.0000 O   0  0  0  0  0  0  0  0  0  0  0  0
    8.8193   -3.3824    0.0000 C   0  0  0  0  0  0  0  0  0  0  0  0
    9.5309   -3.7948    0.0000 O   0  0  0  0  0  0  0  0  0  0  0  0
   10.2466   -2.5575    0.0000 O   0  0  0  0  0  0  0  0  0  0  0  0
   10.2466   -0.9078    0.0000 O   0  0  0  0  0  0  0  0  0  0  0  0
    8.8193   -0.0829    0.0000 O   0  0  0  0  0  0  0  0  0  0  0  0
    6.6698   -0.4874    0.0000 H   0  0  0  0  0  0  0  0  0  0  0  0
    4.0411   -0.1792    0.0000 H   0  0  0  0  0  0  0  0  0  0  0  0
    5.2367   -0.4916    0.0000 H   0  0  0  0  0  0  0  0  0  0  0  0
    7.2572   -1.8997    0.0000 H   0  0  0  0  0  0  0  0  0  0  0  0
  3  5  1  0  0  0  0 
  5  6  1  0  0  0  0 
  6  7  1  0  0  0  0 
  7  8  2  0  0  0  0 
  8  9  1  0  0  0  0 
  9 10  1  0  0  0  0 
 10 11  1  0  0  0  0 
 11  7  1  0  0  0  0 
 11 12  1  0  0  0  0 
 12 13  1  0  0  0  0 
 13 14  1  0  0  0  0 
 14 15  2  0  0  0  0 
 10 15  1  0  0  0  0 
 15 16  1  0  0  0  0 
 16 17  2  0  0  0  0 
 16 18  1  0  0  0  0 
  9 18  1  0  0  0  0 
 12 19  1  0  0  0  0 
 20 19  1  1  0  0  0 
 20 21  1  0  0  0  0 
 21 22  1  0  0  0  0 
 22 23  1  0  0  0  0 
 23 24  1  0  0  0  0 
 24 25  1  0  0  0  0 
 20 25  1  0  0  0  0 
 24 26  1  1  0  0  0 
 26 27  1  0  0  0  0 
 23 28  1  6  0  0  0 
 22 29  1  1  0  0  0 
 21 30  1  6  0  0  0 
 11 31  1  6  0  0  0 
  1  2  1  0  0  0  0 
  9 32  1  6  0  0  0 
  2  3  1  0  0  0  0 
 10 33  1  6  0  0  0 
  3  4  2  0  0  0  0 
 12 34  1  1  0  0  0 
M  END
>  <MOLREGNO>
446481

>  <CHEMBLID>
CHEMBL517133

>  <SYNONYMS>
Paederoside

>  <MAX_PHASE>
0

>  <MOLWEIGHT>
446.43

>  <ALOGP>
-1.16

>  <PSA>
186.51

>  <HBA>
12

>  <HBD>
4

>  <RO5>
1

>  <RTB>
7

>  <RO3>
N

>  <ACD_MOST_APKA>
12.76

>  <ACD_MOST_BPKA>


>  <ACD_LOGP>
-4.79

>  <ACD_LOGD>
-4.79

>  <AROMATIC_RINGS>
0

>  <HEAVY_ATOMS>
30

>  <QED_WEIGHTED>
.27

>  <HBA_LIPINSKI>
11

>  <HBD_LIPINSKI>
4

>  <NUM_LIPINSKI_RO5_VIOLATIONS>
1

>  <MW_MONOISOTOPIC>
446.0883

>  <MOLECULAR_SPECIES>
NEUTRAL

>  <FULL_MOLFORMULA>
C18H22O11S

$$$$

  CDK    9/16/09,9:20

 34 36  0  0  0  0  0  0  0  0999 V2000
   -1.2815   -8.3906    0.0000 C   0  0  0  0  0  0  0  0  0  0  0  0
   -0.5692   -8.8052    0.0000 C   0  0  0  0  0  0  0  0  0  0  0  0
   -0.5692   -9.6302    0.0000 C   0  0  0  0  0  0  0  0  0  0  0  0
   -1.2815  -10.0407    0.0000 C   0  0  0  0  0  0  0  0  0  0  0  0
   -1.9980   -9.6302    0.0000 C   0  0  0  0  0  0  0  0  0  0  0  0
   -1.9980   -8.8052    0.0000 O   0  0  0  0  0  0  0  0  0  0  0  0
    0.2157   -9.8820    0.0000 C   0  0  0  0  0  0  0  0  0  0  0  0
    0.7022   -9.2157    0.0000 C   0  0  0  0  0  0  0  0  0  0  0  0
    0.2157   -8.5494    0.0000 C   0  0  0  0  0  0  0  0  0  0  0  0
   -1.2815  -10.8658    0.0000 C   0  0  0  0  0  0  0  0  0  0  0  0
   -0.5692  -11.2804    0.0000 O   0  0  0  0  0  0  0  0  0  0  0  0
   -1.9980  -11.2804    0.0000 O   0  0  0  0  0  0  0  0  0  0  0  0
   -1.2815   -7.5655    0.0000 O   0  0  0  0  0  0  0  0  0  0  0  0
   -1.9980   -6.3300    0.0000 O   0  0  0  0  0  0  0  0  0  0  0  0
   -1.9980   -7.1550    0.0000 C   0  0  0  0  0  0  0  0  0  0  0  0
   -2.7103   -7.5655    0.0000 C   0  0  0  0  0  0  0  0  0  0  0  0
   -3.4268   -7.1550    0.0000 C   0  0  0  0  0  0  0  0  0  0  0  0
   -3.4268   -6.3300    0.0000 C   0  0  0  0  0  0  0  0  0  0  0  0
   -2.7103   -5.9154    0.0000 C   0  0  0  0  0  0  0  0  0  0  0  0
   -2.7103   -5.0903    0.0000 C   0  0  0  0  0  0  0  0  0  0  0  0
   -3.4268   -4.6798    0.0000 O   0  0  0  0  0  0  0  0  0  0  0  0
   -4.1391   -5.9154    0.0000 O   0  0  0  0  0  0  0  0  0  0  0  0
   -4.1391   -7.5655    0.0000 O   0  0  0  0  0  0  0  0  0  0  0  0
   -2.7103   -8.3906    0.0000 O   0  0  0  0  0  0  0  0  0  0  0  0
    0.4716   -7.7644    0.0000 C   0  0  0  0  0  0  0  0  0  0  0  0
    1.2777   -7.5888    0.0000 O   0  0  0  0  0  0  0  0  0  0  0  0
    1.5336   -6.8080    0.0000 C   0  0  0  0  0  0  0  0  0  0  0  0
    2.3398   -6.6364    0.0000 O   0  0  0  0  0  0  0  0  0  0  0  0
    1.0120   -6.1689    0.0000 S   0  0  0  0  0  0  0  0  0  0  0  0
    0.1981   -6.2971    0.0000 C   0  0  0  0  0  0  0  0  0  0  0  0
    0.4716  -10.6669    0.0000 O   0  0  0  0  0  0  0  0  0  0  0  0
   -0.4806  -10.4485    0.0000 H   0  0  0  0  0  0  0  0  0  0  0  0
   -0.4806   -7.9828    0.0000 H   0  0  0  0  0  0  0  0  0  0  0  0
   -1.2894   -9.2125    0.0000 H   0  0  0  0  0  0  0  0  0  0  0  0
  1  2  1  0  0  0  0 
  2  3  1  0  0  0  0 
  3  4  1  0  0  0  0 
  4  5  2  0  0  0  0 
  5  6  1  0  0  0  0 
  1  6  1  0  0  0  0 
  7  8  1  0  0  0  0 
  8  9  2  0  0  0  0 
  2  9  1  0  0  0  0 
  3  7  1  0  0  0  0 
 10 11  2  0  0  0  0 
 10 12  1  0  0  0  0 
  4 10  1  0  0  0  0 
 14 15  1  0  0  0  0 
 15 16  1  0  0  0  0 
 16 17  1  0  0  0  0 
 17 18  1  0  0  0  0 
 18 19  1  0  0  0  0 
 14 19  1  0  0  0  0 
 20 21  1  0  0  0  0 
 19 20  1  6  0  0  0 
 18 22  1  6  0  0  0 
 17 23  1  6  0  0  0 
 16 24  1  6  0  0  0 
 15 13  1  1  0  0  0 
  1 13  1  0  0  0  0 
 27 28  2  0  0  0  0 
 29 30  1  0  0  0  0 
 27 29  1  0  0  0  0 
 26 27  1  0  0  0  0 
 25 26  1  0  0  0  0 
  9 25  1  0  0  0  0 
  7 31  1  6  0  0  0 
  3 32  1  6  0  0  0 
  2 33  1  1  0  0  0 
  1 34  1  6  0  0  0 
M  END
>  <MOLREGNO>
446543

>  <CHEMBLID>
CHEMBL518786

>  <SYNONYMS>
Paederosidic Acid

>  <MAX_PHASE>
0

>  <MOLWEIGHT>
464.44

>  <ALOGP>
-1.75

>  <PSA>
217.74

>  <HBA>
13

>  <HBD>
6

>  <RO5>
2

>  <RTB>
8

>  <RO3>
N

>  <ACD_MOST_APKA>
4.3

>  <ACD_MOST_BPKA>


>  <ACD_LOGP>
-2.51

>  <ACD_LOGD>
-5.51

>  <AROMATIC_RINGS>
0

>  <HEAVY_ATOMS>
31

>  <QED_WEIGHTED>
.17

>  <HBA_LIPINSKI>
12

>  <HBD_LIPINSKI>
6

>  <NUM_LIPINSKI_RO5_VIOLATIONS>
2

>  <MW_MONOISOTOPIC>
464.0988

>  <MOLECULAR_SPECIES>
ACID

>  <FULL_MOLFORMULA>
C18H24O12S

$$$$

  CDK    9/16/09,9:20

 34 36  0  0  0  0  0  0  0  0999 V2000
   -4.8319   -7.7677    0.0000 C   0  0  0  0  0  0  0  0  0  0  0  0
   -4.8330   -8.5944    0.0000 C   0  0  0  0  0  0  0  0  0  0  0  0
   -4.1182   -9.0050    0.0000 C   0  0  0  0  0  0  0  0  0  0  0  0
   -3.4017   -8.5939    0.0000 C   0  0  0  0  0  0  0  0  0  0  0  0
   -3.4046   -7.7640    0.0000 C   0  0  0  0  0  0  0  0  0  0  0  0
   -4.1199   -7.3531    0.0000 C   0  0  0  0  0  0  0  0  0  0  0  0
   -5.5423   -7.3536    0.0000 O   0  0  0  0  0  0  0  0  0  0  0  0
   -5.5437   -9.0040    0.0000 O   0  0  0  0  0  0  0  0  0  0  0  0
   -2.6916   -7.3471    0.0000 C   0  0  0  0  0  0  0  0  0  0  0  0
   -1.9755   -7.7587    0.0000 C   0  0  0  0  0  0  0  0  0  0  0  0
   -1.2625   -7.3418    0.0000 C   0  0  0  0  0  0  0  0  0  0  0  0
   -0.5460   -7.7533    0.0000 O   0  0  0  0  0  0  0  0  0  0  0  0
   -1.2651   -6.5173    0.0000 O   0  0  0  0  0  0  0  0  0  0  0  0
   -0.5425   -8.5777    0.0000 C   0  0  0  0  0  0  0  0  0  0  0  0
    0.1737   -8.9849    0.0000 C   0  0  0  0  0  0  0  0  0  0  0  0
    0.1709   -9.8067    0.0000 C   0  0  0  0  0  0  0  0  0  0  0  0
    0.8789  -10.2178    0.0000 C   0  0  0  0  0  0  0  0  0  0  0  0
    1.5942   -9.8041    0.0000 C   0  0  0  0  0  0  0  0  0  0  0  0
    1.5927   -8.9787    0.0000 C   0  0  0  0  0  0  0  0  0  0  0  0
    0.8760   -8.5671    0.0000 O   0  0  0  0  0  0  0  0  0  0  0  0
   -0.5439  -10.2203    0.0000 O   0  0  0  0  0  0  0  0  0  0  0  0
    2.3069   -8.5680    0.0000 O   0  0  0  0  0  0  0  0  0  0  0  0
    2.3089  -10.2181    0.0000 O   0  0  0  0  0  0  0  0  0  0  0  0
    0.8793  -11.0422    0.0000 O   0  0  0  0  0  0  0  0  0  0  0  0
    3.0218   -8.9776    0.0000 C   0  0  0  0  0  0  0  0  0  0  0  0
    3.7360   -8.5669    0.0000 C   0  0  0  0  0  0  0  0  0  0  0  0
    4.4507   -8.9764    0.0000 C   0  0  0  0  0  0  0  0  0  0  0  0
    4.4473   -9.7988    0.0000 C   0  0  0  0  0  0  0  0  0  0  0  0
    5.1612  -10.2124    0.0000 C   0  0  0  0  0  0  0  0  0  0  0  0
    5.8764   -9.7975    0.0000 C   0  0  0  0  0  0  0  0  0  0  0  0
    5.8731   -8.9689    0.0000 C   0  0  0  0  0  0  0  0  0  0  0  0
    5.1586   -8.5630    0.0000 C   0  0  0  0  0  0  0  0  0  0  0  0
    6.5817   -8.5557    0.0000 O   0  0  0  0  0  0  0  0  0  0  0  0
    6.5876  -10.2103    0.0000 O   0  0  0  0  0  0  0  0  0  0  0  0
  5  9  1  0  0  0  0 
  4  5  1  0  0  0  0 
 15 20  1  0  0  0  0 
 16 17  1  0  0  0  0 
 17 18  1  0  0  0  0 
 18 19  1  0  0  0  0 
 19 20  1  0  0  0  0 
  9 10  2  0  0  0  0 
 16 21  1  6  0  0  0 
  2  3  1  0  0  0  0 
 19 22  1  1  0  0  0 
 10 11  1  0  0  0  0 
 18 23  1  6  0  0  0 
  5  6  2  0  0  0  0 
 17 24  1  1  0  0  0 
  6  1  1  0  0  0  0 
 22 25  1  0  0  0  0 
 11 12  1  0  0  0  0 
 25 26  1  0  0  0  0 
 11 13  2  0  0  0  0 
 26 27  1  0  0  0  0 
  1  2  2  0  0  0  0 
 27 28  2  0  0  0  0 
 12 14  1  0  0  0  0 
 28 29  1  0  0  0  0 
  1  7  1  0  0  0  0 
 29 30  2  0  0  0  0 
 15 14  1  1  0  0  0 
 30 31  1  0  0  0  0 
 15 16  1  0  0  0  0 
 31 32  2  0  0  0  0 
 32 27  1  0  0  0  0 
  3  4  2  0  0  0  0 
 31 33  1  0  0  0  0 
  2  8  1  0  0  0  0 
 30 34  1  0  0  0  0 
M  END
>  <MOLREGNO>
503400

>  <CHEMBLID>
CHEMBL518414

>  <SYNONYMS>
CALCEOLARIOSIDE B

>  <MAX_PHASE>
0

>  <MOLWEIGHT>
478.45

>  <ALOGP>
1.34

>  <PSA>
186.36

>  <HBA>
11

>  <HBD>
7

>  <RO5>
2

>  <RTB>
9

>  <RO3>
N

>  <ACD_MOST_APKA>
9.32

>  <ACD_MOST_BPKA>


>  <ACD_LOGP>
1.11

>  <ACD_LOGD>
1.1

>  <AROMATIC_RINGS>
2

>  <HEAVY_ATOMS>
34

>  <QED_WEIGHTED>
.16

>  <HBA_LIPINSKI>
11

>  <HBD_LIPINSKI>
7

>  <NUM_LIPINSKI_RO5_VIOLATIONS>
2

>  <MW_MONOISOTOPIC>
478.1475

>  <MOLECULAR_SPECIES>
NEUTRAL

>  <FULL_MOLFORMULA>
C23H26O11

$$$$

  CDK    9/16/09,9:46

 25 28  0  0  0  0  0  0  0  0999 V2000
    9.1178  -19.8807    0.0000 C   0  0  0  0  0  0  0  0  0  0  0  0
    9.1180  -18.6593    0.0000 O   0  0  0  0  0  0  0  0  0  0  0  0
    9.6956  -18.0773    0.0000 C   0  0  0  0  0  0  0  0  0  0  0  0
    9.6959  -20.4635    0.0000 C   0  0  0  0  0  0  0  0  0  0  0  0
   10.5207  -20.4635    0.0000 C   0  0  0  0  0  0  0  0  0  0  0  0
   10.5207  -18.0770    0.0000 C   0  0  0  0  0  0  0  0  0  0  0  0
    9.8901  -19.8381    0.0000 O   0  0  0  0  0  0  0  0  0  0  0  0
   10.3045  -18.8667    0.0000 C   0  0  0  0  0  0  0  0  0  0  0  0
    9.5503  -17.2734    0.0000 O   0  0  0  0  0  0  0  0  0  0  0  0
   11.1035  -18.6593    0.0000 C   0  0  0  0  0  0  0  0  0  0  0  0
   11.1013  -19.8785    0.0000 C   0  0  0  0  0  0  0  0  0  0  0  0
   12.1464  -20.4798    0.0000 C   0  0  0  0  0  0  0  0  0  0  0  0
   13.2042  -19.8773    0.0000 N   0  0  0  0  0  0  0  0  0  0  0  0
   13.2064  -18.6630    0.0000 C   0  0  0  0  0  0  0  0  0  0  0  0
   12.1508  -18.0419    0.0000 N   0  0  0  0  0  0  0  0  0  0  0  0
   11.0883  -20.6932    0.0000 H   0  0  0  0  0  0  0  0  0  0  0  0
   10.5139  -21.2772    0.0000 H   0  0  0  0  0  0  0  0  0  0  0  0
    8.3224  -20.0875    0.0000 H   0  0  0  0  0  0  0  0  0  0  0  0
    9.6938  -21.2772    0.0000 C   0  0  0  0  0  0  0  0  0  0  0  0
   10.5139  -19.6600    0.0000 O   0  0  0  0  0  0  0  0  0  0  0  0
   10.8379  -17.3169    0.0000 O   0  0  0  0  0  0  0  0  0  0  0  0
   12.1454  -21.6931    0.0000 O   0  0  0  0  0  0  0  0  0  0  0  0
   14.2634  -18.0509    0.0000 N   0  0  0  0  0  0  0  0  0  0  0  0
    8.9855  -20.8626    0.0000 O   0  0  0  0  0  0  0  0  0  0  0  0
    8.9804  -21.6867    0.0000 O   0  0  0  0  0  0  0  0  0  0  0  0
  5 11  1  0  0  0  0 
 10  6  1  0  0  0  0 
  6  3  1  0  0  0  0 
  3  7  1  0  0  0  0 
  7  5  1  0  0  0  0 
 10  8  1  0  0  0  0 
  1  8  1  0  0  0  0 
  3  9  1  1  0  0  0 
 10 11  1  0  0  0  0 
 10 15  1  6  0  0  0 
 11 12  1  0  0  0  0 
 12 13  1  0  0  0  0 
 13 14  2  0  0  0  0 
 14 15  1  0  0  0  0 
 11 16  1  6  0  0  0 
  5 17  1  1  0  0  0 
  1 18  1  6  0  0  0 
  4 19  1  0  0  0  0 
  8 20  1  1  0  0  0 
  1  2  1  0  0  0  0 
  2  3  1  0  0  0  0 
  1  4  1  0  0  0  0 
  4  5  1  0  0  0  0 
  6 21  1  1  0  0  0 
 14 23  1  0  0  0  0 
  4 24  1  6  0  0  0 
 12 22  1  6  0  0  0 
 19 25  1  0  0  0  0 
M  END
>  <MOLREGNO>
449338

>  <CHEMBLID>
CHEMBL507974

>  <SYNONYMS>
Tetrodotoxin | tettrodotoxin

>  <MAX_PHASE>
0

>  <MOLWEIGHT>
319.27

>  <ALOGP>
-4

>  <PSA>
190.25

>  <HBA>
11

>  <HBD>
8

>  <RO5>
2

>  <RTB>
1

>  <RO3>
N

>  <ACD_MOST_APKA>
9.42

>  <ACD_MOST_BPKA>
12.88

>  <ACD_LOGP>
.67

>  <ACD_LOGD>
-1.02

>  <AROMATIC_RINGS>
0

>  <HEAVY_ATOMS>
22

>  <QED_WEIGHTED>
.24

>  <HBA_LIPINSKI>
11

>  <HBD_LIPINSKI>
9

>  <NUM_LIPINSKI_RO5_VIOLATIONS>
2

>  <MW_MONOISOTOPIC>
319.1016

>  <MOLECULAR_SPECIES>
BASE

>  <FULL_MOLFORMULA>
C11H17N3O8

$$$$

  SciTegic11201309402D

 33 38  0  0  1  0            999 V2000
    4.9667   -7.3833    0.0000 C   0  0  2  0  0  0
    4.9667   -6.5583    0.0000 C   0  0  1  0  0  0
    5.2292   -8.2708    0.0000 O   0  0
    5.7542   -7.6292    0.0000 C   0  0  2  0  0  0
    4.2542   -7.7917    0.0000 C   0  0  1  0  0  0
    2.8375   -7.7958    0.0000 C   0  0  2  0  0  0
    5.7500   -6.2958    0.0000 C   0  0  2  0  0  0
    3.5500   -7.3833    0.0000 C   0  0  1  0  0  0
    6.2417   -6.9583    0.0000 C   0  0
    5.9917   -5.5083    0.0000 C   0  0
    2.8375   -8.6208    0.0000 C   0  0  2  0  0  0
    4.2542   -6.1417    0.0000 C   0  0
    5.5125   -4.8417    0.0000 C   0  0
    6.6625   -3.9958    0.0000 C   0  0
    6.8167   -5.4208    0.0000 C   0  0
    5.8417   -4.0833    0.0000 O   0  0
    3.5500   -6.5583    0.0000 C   0  0
    4.2542   -8.6208    0.0000 C   0  0
    2.1167   -7.3833    0.0000 C   0  0
    7.1542   -4.6708    0.0000 C   0  0
    3.5417   -9.0333    0.0000 C   0  0
    2.1167   -9.0333    0.0000 C   0  0
    6.9917   -3.2458    0.0000 O   0  0
    4.9625   -5.7333    0.0000 C   0  0
    1.4125   -7.7958    0.0000 C   0  0
    1.4125   -8.6208    0.0000 C   0  0  2  0  0  0
    2.8292   -6.9708    0.0000 C   0  0
    0.9917   -9.3333    0.0000 O   0  0
    1.6635   -9.5888    0.0000 H   0  0
    2.8324   -9.6208    0.0000 H   0  0
    2.6837   -6.8838    0.0000 H   0  0
    5.1194   -8.2931    0.0000 H   0  0
    4.9624   -7.0184    0.0000 H   0  0
  1  3  1  1
  4  1  1  0
  5  1  1  0
  6  8  1  0
  7  2  1  0
  8  5  1  0
  9  4  1  0
  7 10  1  1
 11 21  1  0
 12  2  1  0
 13 10  2  0
 14 20  1  0
 15 10  1  0
 16 13  1  0
 17  8  1  0
 18  5  1  0
 19  6  1  0
 20 15  2  0
 21 18  1  0
 22 11  1  0
 23 14  2  0
  2 24  1  1
 25 19  1  0
 26 22  1  0
  6 27  1  1
 26 28  1  0
 26 29  1  6
 11 30  1  1
  4  3  1  0
  9  7  1  0
 12 17  1  0
  6 11  1  0
 16 14  1  0
 25 26  1  0
  8 31  1  6
  2  1  1  0
  5 32  1  1
  4 33  1  6
M  END
>  <MOLREGNO>
417226

>  <CHEMBLID>
CHEMBL250172

>  <SYNONYMS>
BUFOGENIN

>  <MAX_PHASE>
0

>  <MOLWEIGHT>
384.51

>  <ALOGP>
3.11

>  <PSA>
59.06

>  <HBA>
4

>  <HBD>
1

>  <RO5>
0

>  <RTB>
1

>  <RO3>
N

>  <ACD_MOST_APKA>


>  <ACD_MOST_BPKA>


>  <ACD_LOGP>
2.27

>  <ACD_LOGD>
2.27

>  <AROMATIC_RINGS>
0

>  <HEAVY_ATOMS>
28

>  <QED_WEIGHTED>
.71

>  <HBA_LIPINSKI>
4

>  <HBD_LIPINSKI>
1

>  <NUM_LIPINSKI_RO5_VIOLATIONS>
0

>  <MW_MONOISOTOPIC>
384.2301

>  <MOLECULAR_SPECIES>
NEUTRAL

>  <FULL_MOLFORMULA>
C24H32O4

$$$$

  CDK    9/16/09,9:20

 31 35  0  0  0  0  0  0  0  0999 V2000
   -4.0917   -1.9708    0.0000 C   0  0  0  0  0  0  0  0  0  0  0  0
   -4.0917   -2.7958    0.0000 C   0  0  0  0  0  0  0  0  0  0  0  0
   -3.3796   -3.2042    0.0000 C   0  0  0  0  0  0  0  0  0  0  0  0
   -3.3796   -1.5542    0.0000 C   0  0  0  0  0  0  0  0  0  0  0  0
   -2.6676   -1.9708    0.0000 C   0  0  0  0  0  0  0  0  0  0  0  0
   -2.6711   -2.7958    0.0000 C   0  0  0  0  0  0  0  0  0  0  0  0
   -1.9624   -3.2091    0.0000 C   0  0  0  0  0  0  0  0  0  0  0  0
   -1.2456   -2.8019    0.0000 C   0  0  0  0  0  0  0  0  0  0  0  0
   -1.9554   -1.5591    0.0000 C   0  0  0  0  0  0  0  0  0  0  0  0
   -1.2420   -1.9817    0.0000 C   0  0  0  0  0  0  0  0  0  0  0  0
   -1.2250   -0.3264    0.0000 C   0  0  0  0  0  0  0  0  0  0  0  0
   -1.9500   -0.7322    0.0000 C   0  0  0  0  0  0  0  0  0  0  0  0
   -0.5117   -0.7491    0.0000 C   0  0  0  0  0  0  0  0  0  0  0  0
   -0.5251   -1.5756    0.0000 C   0  0  0  0  0  0  0  0  0  0  0  0
    0.2568   -1.8438    0.0000 C   0  0  0  0  0  0  0  0  0  0  0  0
    0.7536   -1.1830    0.0000 C   0  0  0  0  0  0  0  0  0  0  0  0
    0.2786   -0.5065    0.0000 C   0  0  0  0  0  0  0  0  0  0  0  0
   -0.5167    0.0792    0.0000 C   0  0  0  0  0  0  0  0  0  0  0  0
    0.5496    0.2741    0.0000 C   0  0  0  0  0  0  0  0  0  0  0  0
    1.3605    0.4307    0.0000 C   0  0  0  0  0  0  0  0  0  0  0  0
    1.6289    1.2070    0.0000 C   0  0  0  0  0  0  0  0  0  0  0  0
    1.0898    1.8321    0.0000 C   0  0  0  0  0  0  0  0  0  0  0  0
    0.2789    1.6754    0.0000 O   0  0  0  0  0  0  0  0  0  0  0  0
    0.0069    0.8937    0.0000 C   0  0  0  0  0  0  0  0  0  0  0  0
    1.3604    2.6114    0.0000 O   0  0  0  0  0  0  0  0  0  0  0  0
   -2.6792   -3.6167    0.0000 H   0  0  0  0  0  0  0  0  0  0  0  0
   -2.6750   -1.1458    0.0000 C   0  0  0  0  0  0  0  0  0  0  0  0
   -1.9625   -2.3833    0.0000 H   0  0  0  0  0  0  0  0  0  0  0  0
   -1.2500   -1.1542    0.0000 H   0  0  0  0  0  0  0  0  0  0  0  0
   -4.8055   -3.2094    0.0000 O   0  0  0  0  0  0  0  0  0  0  0  0
   -0.5333   -2.4000    0.0000 O   0  0  0  0  0  0  0  0  0  0  0  0
  2  3  1  0  0  0  0 
  5  9  1  0  0  0  0 
  6  7  1  0  0  0  0 
 14 15  1  0  0  0  0 
 15 16  1  0  0  0  0 
 16 17  1  0  0  0  0 
 17 13  1  0  0  0  0 
  7  8  1  0  0  0  0 
 13 18  1  1  0  0  0 
 19 20  1  0  0  0  0 
  8 10  1  0  0  0  0 
  9 10  1  0  0  0  0 
  3  6  1  0  0  0  0 
  5  4  1  0  0  0  0 
  5  6  1  0  0  0  0 
 19 24  2  0  0  0  0 
 20 21  2  0  0  0  0 
 21 22  1  0  0  0  0 
 22 23  1  0  0  0  0 
 23 24  1  0  0  0  0 
 17 19  1  1  0  0  0 
  9 12  1  0  0  0  0 
 22 25  2  0  0  0  0 
 10 14  1  0  0  0  0 
  6 26  1  1  0  0  0 
 13 11  1  0  0  0  0 
  5 27  1  1  0  0  0 
 11 12  1  0  0  0  0 
  9 28  1  6  0  0  0 
 13 14  1  0  0  0  0 
 10 29  1  1  0  0  0 
  1  2  1  0  0  0  0 
  2 30  1  1  0  0  0 
  1  4  1  0  0  0  0 
 14 31  1  1  0  0  0 
M  END
>  <MOLREGNO>
417248

>  <CHEMBLID>
CHEMBL399680

>  <SYNONYMS>
Bufalin

>  <MAX_PHASE>
0

>  <MOLWEIGHT>
386.52

>  <ALOGP>
3.31

>  <PSA>
66.76

>  <HBA>
4

>  <HBD>
2

>  <RO5>
0

>  <RTB>
1

>  <RO3>
N

>  <ACD_MOST_APKA>


>  <ACD_MOST_BPKA>


>  <ACD_LOGP>
2.78

>  <ACD_LOGD>
2.78

>  <AROMATIC_RINGS>
0

>  <HEAVY_ATOMS>
28

>  <QED_WEIGHTED>
.68

>  <HBA_LIPINSKI>
4

>  <HBD_LIPINSKI>
2

>  <NUM_LIPINSKI_RO5_VIOLATIONS>
0

>  <MW_MONOISOTOPIC>
386.2457

>  <MOLECULAR_SPECIES>
NEUTRAL

>  <FULL_MOLFORMULA>
C24H34O4

$$$$

  SciTegic11201309402D

 38 43  0  0  1  0            999 V2000
    4.3208   -7.3792    0.0000 C   0  0  1  0  0  0
    5.1083   -7.6292    0.0000 C   0  0  2  0  0  0
    4.5833   -8.2667    0.0000 O   0  0
    4.3208   -6.5542    0.0000 C   0  0  1  0  0  0
    3.6083   -7.7917    0.0000 C   0  0  1  0  0  0
    5.5958   -6.9625    0.0000 C   0  0  1  0  0  0
    5.1042   -6.2917    0.0000 C   0  0  2  0  0  0
    2.1917   -7.8000    0.0000 C   0  0  2  0  0  0
    2.9042   -7.3792    0.0000 C   0  0  1  0  0  0
    5.3458   -5.5125    0.0000 C   0  0
    2.1917   -8.6250    0.0000 C   0  0  2  0  0  0
    3.6083   -6.1417    0.0000 C   0  0
    4.8667   -4.8417    0.0000 C   0  0
    6.0167   -4.0000    0.0000 C   0  0
    6.1708   -5.4250    0.0000 C   0  0
    5.1958   -4.0875    0.0000 O   0  0
    6.3667   -6.6292    0.0000 O   0  0
    2.9042   -6.5542    0.0000 C   0  0
    3.6083   -8.6250    0.0000 C   0  0
    1.4708   -7.3792    0.0000 C   0  0
    6.5083   -4.6667    0.0000 C   0  0
    7.0208   -7.1292    0.0000 C   0  0
    2.8958   -9.0292    0.0000 C   0  0
    1.4708   -9.0292    0.0000 C   0  0
    6.3458   -3.2417    0.0000 O   0  0
    7.7833   -6.8042    0.0000 O   0  0
    4.3167   -5.7292    0.0000 C   0  0
    0.7667   -7.8000    0.0000 C   0  0
    0.7667   -8.6250    0.0000 C   0  0  2  0  0  0
    2.1833   -6.9750    0.0000 C   0  0
    0.0458   -8.2042    0.0000 O   0  0
    6.9208   -7.9417    0.0000 C   0  0
    5.8578   -5.9974    0.0000 H   0  0
    1.2677   -7.7595    0.0000 H   0  0
    2.1866   -9.6250    0.0000 H   0  0
    4.4746   -8.2912    0.0000 H   0  0
    2.0357   -6.8835    0.0000 H   0  0
    4.3184   -7.0160    0.0000 H   0  0
  1  3  1  1
  4  1  1  0
  5  1  1  0
  6  2  1  0
  7  4  1  0
  8  9  1  0
  9  5  1  0
  7 10  1  1
 11 23  1  0
 12  4  1  0
 13 10  2  0
 14 21  1  0
 15 10  1  0
 16 13  1  0
  6 17  1  0
 18  9  1  0
 19  5  1  0
 20  8  1  0
 21 15  2  0
 22 17  1  0
 23 19  1  0
 24 11  1  0
 25 14  2  0
 26 22  2  0
  4 27  1  1
 28 20  1  0
 29 24  1  0
  8 30  1  1
 29 31  1  0
 32 22  1  0
  6 33  1  6
 29 34  1  6
 11 35  1  1
  2  3  1  0
  6  7  1  0
 18 12  1  0
  8 11  1  0
 16 14  1  0
 28 29  1  0
  5 36  1  1
  2  1  1  0
  9 37  1  6
  2 38  1  6
M  END
>  <MOLREGNO>
417240

>  <CHEMBLID>
CHEMBL250785

>  <SYNONYMS>
Cinobufagin

>  <MAX_PHASE>
0

>  <MOLWEIGHT>
442.54

>  <ALOGP>
2.59

>  <PSA>
85.36

>  <HBA>
6

>  <HBD>
1

>  <RO5>
0

>  <RTB>
3

>  <RO3>
N

>  <ACD_MOST_APKA>


>  <ACD_MOST_BPKA>


>  <ACD_LOGP>
1.85

>  <ACD_LOGD>
1.85

>  <AROMATIC_RINGS>
0

>  <HEAVY_ATOMS>
32

>  <QED_WEIGHTED>
.68

>  <HBA_LIPINSKI>
6

>  <HBD_LIPINSKI>
1

>  <NUM_LIPINSKI_RO5_VIOLATIONS>
0

>  <MW_MONOISOTOPIC>
442.2355

>  <MOLECULAR_SPECIES>
NEUTRAL

>  <FULL_MOLFORMULA>
C26H34O6

$$$$

  SciTegic08161218152D

 42 46  0  0  0  0            999 V2000
    2.8896  -10.9268    0.0000 C   0  0
    2.8896  -10.1018    0.0000 C   0  0
    3.6041   -9.6893    0.0000 C   0  0
    3.6041  -11.3393    0.0000 C   0  0
    4.3186  -10.9268    0.0000 C   0  0
    4.3186  -10.1018    0.0000 C   0  0
    5.0331   -9.6893    0.0000 C   0  0
    5.7475  -10.1018    0.0000 C   0  0
    5.7475  -10.9268    0.0000 C   0  0
    5.0331  -11.3393    0.0000 O   0  0
    5.0331   -8.8643    0.0000 O   0  0
    3.6041   -8.8643    0.0000 O   0  0
    2.1752  -11.3393    0.0000 O   0  0
    6.4620  -11.3393    0.0000 C   0  0
    7.1765  -10.9268    0.0000 C   0  0
    7.8909  -11.3393    0.0000 C   0  0
    7.8909  -12.1643    0.0000 C   0  0
    7.1765  -12.5768    0.0000 C   0  0
    8.6054  -12.5768    0.0000 O   0  0
    2.1752   -9.6893    0.0000 O   0  0
    2.1752   -8.8643    0.0000 C   0  0  2  0  0  0
    2.8896   -8.4518    0.0000 O   0  0
    2.8896   -7.6268    0.0000 C   0  0  1  0  0  0
    2.1752   -7.2143    0.0000 C   0  0  2  0  0  0
    1.4607   -7.6268    0.0000 C   0  0  1  0  0  0
    1.4607   -8.4518    0.0000 C   0  0  1  0  0  0
    3.6041  -12.1643    0.0000 O   0  0
    2.8896  -12.5768    0.0000 C   0  0  2  0  0  0
    2.1752  -12.1643    0.0000 O   0  0
    1.4607  -12.5768    0.0000 C   0  0
    1.4607  -13.4018    0.0000 C   0  0  1  0  0  0
    2.1752  -13.8143    0.0000 C   0  0  1  0  0  0
    2.8896  -13.4018    0.0000 C   0  0  1  0  0  0
    2.1752  -14.6393    0.0000 O   0  0
    6.4620  -12.1643    0.0000 C   0  0
    3.6041  -13.8143    0.0000 O   0  0
    0.7462  -13.8143    0.0000 O   0  0
    0.7462   -7.2143    0.0000 O   0  0
    3.6041   -7.2143    0.0000 C   0  0
    4.3186   -7.6268    0.0000 O   0  0
    2.1752   -6.3893    0.0000 O   0  0
    0.7462   -8.8643    0.0000 O   0  0
  7  8  1  0
  2 20  1  0
  8  9  2  0
 21 20  1  1
 21 22  1  0
  9 10  1  0
  5  6  1  0
  7 11  2  0
  3 12  1  0
 21 26  1  0
 22 23  1  0
 23 24  1  0
 24 25  1  0
 25 26  1  0
  2  3  1  0
  4 27  1  0
  1 13  1  0
 28 27  1  1
 28 29  1  0
  3  6  2  0
  1  2  2  0
 14 15  2  0
  5  4  2  0
 15 16  1  0
 28 33  1  0
 29 30  1  0
 30 31  1  0
 31 32  1  0
 32 33  1  0
  4  1  1  0
 32 34  1  1
 16 17  2  0
  5 10  1  0
 33 36  1  6
 17 18  1  0
 31 37  1  1
 18 35  2  0
 25 38  1  1
 35 14  1  0
 23 39  1  1
  9 14  1  0
 39 40  1  0
  6  7  1  0
 24 41  1  6
 17 19  1  0
 26 42  1  6
M  END
>  <MOLREGNO>
556765

>  <CHEMBLID>
CHEMBL532274

>  <SYNONYMS>
Schaftoside

>  <MAX_PHASE>
0

>  <MOLWEIGHT>
596.49

>  <ALOGP>
-1.42

>  <PSA>
265.52

>  <HBA>
16

>  <HBD>
10

>  <RO5>
3

>  <RTB>
6

>  <RO3>
N

>  <ACD_MOST_APKA>
4.96

>  <ACD_MOST_BPKA>


>  <ACD_LOGP>
-3.42

>  <ACD_LOGD>
-6.64

>  <AROMATIC_RINGS>
2

>  <HEAVY_ATOMS>
42

>  <QED_WEIGHTED>
.18

>  <HBA_LIPINSKI>
16

>  <HBD_LIPINSKI>
10

>  <NUM_LIPINSKI_RO5_VIOLATIONS>
2

>  <MW_MONOISOTOPIC>
596.1377

>  <MOLECULAR_SPECIES>
ACID

>  <FULL_MOLFORMULA>
C26H28O16

$$$$

  SciTegic09031215512D

 32 35  0  0  0  0            999 V2000
   22.6209   -1.5575    0.0000 C   0  0  1  0  0  0
   22.6171   -0.7323    0.0000 C   0  0  2  0  0  0
   21.8300   -0.4828    0.0000 C   0  0  1  0  0  0
   21.3516   -1.1529    0.0000 C   0  0  1  0  0  0
   21.8386   -1.8179    0.0000 C   0  0  2  0  0  0
   21.0213   -1.9106    0.0000 O   0  0
   22.0187   -2.6223    0.0000 C   0  0
   20.6360   -0.7473    0.0000 H   0  0
   21.8300    0.3422    0.0000 O   0  0
   23.3291   -0.3172    0.0000 C   0  0
   23.3254    0.5078    0.0000 C   0  0
   24.0417    0.9164    0.0000 O   0  0
   24.0468    1.7413    0.0000 C   0  0
   22.6142    0.9283    0.0000 O   0  0
   24.0489   -0.7228    0.0000 C   0  0
   24.0527   -1.5478    0.0000 O   0  0
   23.3407   -1.9673    0.0000 C   0  0  1  0  0  0
   23.3446   -2.7917    0.0000 O   0  0
   24.1218   -3.0655    0.0000 C   0  0  1  0  0  0
   24.9486   -3.0598    0.0000 C   0  0  1  0  0  0
   25.3674   -3.7669    0.0000 C   0  0  2  0  0  0
   24.9613   -4.4878    0.0000 C   0  0  1  0  0  0
   24.1345   -4.4935    0.0000 C   0  0  2  0  0  0
   23.7190   -3.7815    0.0000 O   0  0
   23.7324   -5.2136    0.0000 C   0  0
   25.3809   -5.1988    0.0000 O   0  0
   26.1941   -3.7612    0.0000 O   0  0
   25.3548   -2.3389    0.0000 O   0  0
   24.1161   -2.2389    0.0000 H   0  0
   22.6171    0.0927    0.0000 O   0  0
   22.5439   -2.3806    0.0000 H   0  0
   22.9058   -5.2193    0.0000 O   0  0
  1  2  1  0
  2  3  1  0
  3  4  1  0
  5  4  1  0
  1  5  1  0
  5  6  1  0
  4  6  1  0
  5  7  1  6
  4  8  1  6
  3  9  1  1
  2 10  1  0
 10 11  1  0
 11 12  1  0
 12 13  1  0
 11 14  2  0
 10 15  2  0
 16 15  1  0
 17 16  1  0
  1 17  1  0
 17 18  1  1
 19 18  1  0
 19 20  1  0
 20 21  1  0
 21 22  1  0
 23 22  1  0
 24 23  1  0
 19 24  1  0
 23 25  1  1
 22 26  1  6
 21 27  1  1
 20 28  1  6
 19 29  1  6
  2 30  1  1
  1 31  1  1
 25 32  1  0
M  END
>  <MOLREGNO>
1352071

>  <CHEMBLID>
CHEMBL2048637

>  <SYNONYMS>
Sesamoside

>  <MAX_PHASE>
0

>  <MOLWEIGHT>
420.37

>  <ALOGP>
-3.89

>  <PSA>
187.89

>  <HBA>
12

>  <HBD>
6

>  <RO5>
2

>  <RTB>
5

>  <RO3>
N

>  <ACD_MOST_APKA>


>  <ACD_MOST_BPKA>
1.73

>  <ACD_LOGP>
3.83

>  <ACD_LOGD>
3.83

>  <AROMATIC_RINGS>
0

>  <HEAVY_ATOMS>
29

>  <QED_WEIGHTED>
.24

>  <HBA_LIPINSKI>
12

>  <HBD_LIPINSKI>
6

>  <NUM_LIPINSKI_RO5_VIOLATIONS>
2

>  <MW_MONOISOTOPIC>
420.1268

>  <MOLECULAR_SPECIES>
NEUTRAL

>  <FULL_MOLFORMULA>
C17H24O12

$$$$

  CDK    9/16/09,9:20

 34 36  0  0  0  0  0  0  0  0999 V2000
    0.3037  -10.1792    0.0000 C   0  0  0  0  0  0  0  0  0  0  0  0
    1.0157   -9.7708    0.0000 O   0  0  0  0  0  0  0  0  0  0  0  0
    1.0157   -8.9458    0.0000 C   0  0  0  0  0  0  0  0  0  0  0  0
    0.3037   -8.5292    0.0000 C   0  0  0  0  0  0  0  0  0  0  0  0
   -0.4083   -9.7708    0.0000 C   0  0  0  0  0  0  0  0  0  0  0  0
   -0.4083   -8.9413    0.0000 C   0  0  0  0  0  0  0  0  0  0  0  0
   -1.1973   -8.6848    0.0000 C   0  0  0  0  0  0  0  0  0  0  0  0
   -1.6850   -9.3560    0.0000 C   0  0  0  0  0  0  0  0  0  0  0  0
   -1.1973  -10.0271    0.0000 C   0  0  0  0  0  0  0  0  0  0  0  0
    0.3057   -7.7042    0.0000 C   0  0  0  0  0  0  0  0  0  0  0  0
    1.0211   -7.2934    0.0000 O   0  0  0  0  0  0  0  0  0  0  0  0
   -0.4078   -7.2900    0.0000 O   0  0  0  0  0  0  0  0  0  0  0  0
    1.7346   -7.7076    0.0000 C   0  0  0  0  0  0  0  0  0  0  0  0
   -1.4521   -7.8998    0.0000 O   0  0  0  0  0  0  0  0  0  0  0  0
   -0.9875  -10.8208    0.0000 C   0  0  0  0  0  0  0  0  0  0  0  0
   -1.7875  -10.6083    0.0000 O   0  0  0  0  0  0  0  0  0  0  0  0
   -2.5827  -10.3887    0.0000 C   0  0  0  0  0  0  0  0  0  0  0  0
   -3.1705  -10.9676    0.0000 O   0  0  0  0  0  0  0  0  0  0  0  0
   -2.7902   -9.5903    0.0000 C   0  0  0  0  0  0  0  0  0  0  0  0
    0.3037  -11.0042    0.0000 O   0  0  0  0  0  0  0  0  0  0  0  0
    1.0182  -11.4167    0.0000 C   0  0  0  0  0  0  0  0  0  0  0  0
    1.0145  -12.2426    0.0000 C   0  0  0  0  0  0  0  0  0  0  0  0
    1.7249  -12.6550    0.0000 C   0  0  0  0  0  0  0  0  0  0  0  0
    2.4418  -12.2460    0.0000 C   0  0  0  0  0  0  0  0  0  0  0  0
    2.4438  -11.4201    0.0000 C   0  0  0  0  0  0  0  0  0  0  0  0
    1.7289  -11.0031    0.0000 O   0  0  0  0  0  0  0  0  0  0  0  0
    3.1547  -12.6612    0.0000 O   0  0  0  0  0  0  0  0  0  0  0  0
    3.1597  -11.0100    0.0000 C   0  0  0  0  0  0  0  0  0  0  0  0
    3.8727  -11.4250    0.0000 O   0  0  0  0  0  0  0  0  0  0  0  0
    1.7218  -13.4800    0.0000 O   0  0  0  0  0  0  0  0  0  0  0  0
    0.2987  -12.6527    0.0000 O   0  0  0  0  0  0  0  0  0  0  0  0
    1.0125  -10.5917    0.0000 H   0  0  0  0  0  0  0  0  0  0  0  0
   -0.4125   -8.1125    0.0000 H   0  0  0  0  0  0  0  0  0  0  0  0
   -0.4125  -10.5958    0.0000 H   0  0  0  0  0  0  0  0  0  0  0  0
  6  7  1  0  0  0  0 
 16 17  1  0  0  0  0 
  7  8  1  0  0  0  0 
 17 18  2  0  0  0  0 
  8  9  1  0  0  0  0 
 17 19  1  0  0  0  0 
  9  5  1  0  0  0  0 
  1 20  1  1  0  0  0 
  3  4  2  0  0  0  0 
 20 21  1  0  0  0  0 
 21 22  1  0  0  0  0 
  4 10  1  0  0  0  0 
  5  6  1  0  0  0  0 
 10 11  1  0  0  0  0 
 10 12  2  0  0  0  0 
 21 26  1  0  0  0  0 
 22 23  1  0  0  0  0 
 23 24  1  0  0  0  0 
 24 25  1  0  0  0  0 
 25 26  1  0  0  0  0 
  6  4  1  0  0  0  0 
 24 27  1  1  0  0  0 
 11 13  1  0  0  0  0 
 25 28  1  6  0  0  0 
  5  1  1  0  0  0  0 
 28 29  1  0  0  0  0 
  7 14  1  1  0  0  0 
 23 30  1  6  0  0  0 
  1  2  1  0  0  0  0 
 22 31  1  1  0  0  0 
  9 15  1  0  0  0  0 
 21 32  1  1  0  0  0 
  2  3  1  0  0  0  0 
  6 33  1  1  0  0  0 
  9 16  1  1  0  0  0 
  5 34  1  1  0  0  0 
M  END
>  <MOLREGNO>
503452

>  <CHEMBLID>
CHEMBL463751

>  <SYNONYMS>
Barlerin

>  <MAX_PHASE>
0

>  <MOLWEIGHT>
448.42

>  <ALOGP>
-2.69

>  <PSA>
181.44

>  <HBA>
12

>  <HBD>
5

>  <RO5>
1

>  <RTB>
7

>  <RO3>
N

>  <ACD_MOST_APKA>
12.8

>  <ACD_MOST_BPKA>


>  <ACD_LOGP>
-2

>  <ACD_LOGD>
-2

>  <AROMATIC_RINGS>
0

>  <HEAVY_ATOMS>
31

>  <QED_WEIGHTED>
.26

>  <HBA_LIPINSKI>
12

>  <HBD_LIPINSKI>
5

>  <NUM_LIPINSKI_RO5_VIOLATIONS>
1

>  <MW_MONOISOTOPIC>
448.1581

>  <MOLECULAR_SPECIES>
NEUTRAL

>  <FULL_MOLFORMULA>
C19H28O12

$$$$

  SciTegic01311317052D

 36 40  0  0  0  0            999 V2000
    1.5398  -29.9424    0.0000 C   0  0
    1.9513  -29.2254    0.0000 C   0  0
    1.5398  -28.5130    0.0000 C   0  0
    1.1283  -29.2254    0.0000 C   0  0
    0.3007  -29.2254    0.0000 C   0  0
   -0.1108  -28.5130    0.0000 C   0  0
    0.3007  -27.7962    0.0000 N   0  0
    1.5398  -27.0838    0.0000 C   0  0  1  0  0  0
    0.8919  -26.5677    0.0000 C   0  0
    0.1749  -26.9837    0.0000 C   0  0
    2.3627  -27.0838    0.0000 C   0  0  2  0  0  0
    2.7787  -27.7962    0.0000 C   0  0  2  0  0  0
    2.3627  -28.5130    0.0000 C   0  0  2  0  0  0
    2.7787  -29.2254    0.0000 O   0  0
    3.6017  -29.2254    0.0000 C   0  0
    4.0178  -29.9424    0.0000 O   0  0
    4.0178  -28.5130    0.0000 C   0  0
    3.4089  -27.2665    0.0000 C   0  0
    3.6279  -26.5209    0.0000 O   0  0
    4.1857  -27.5482    0.0000 O   0  0
    4.8158  -27.0185    0.0000 C   0  0
    3.4089  -28.3303    0.0000 O   0  0
    2.6174  -26.2959    0.0000 N   0  0
    1.9513  -25.8143    0.0000 C   0  0
    1.2805  -26.2959    0.0000 C   0  0
    0.5303  -25.9620    0.0000 C   0  0
    0.4418  -25.1420    0.0000 C   0  0
    1.1080  -24.6557    0.0000 C   0  0
    1.8627  -24.9897    0.0000 C   0  0
    1.0241  -23.8311    0.0000 O   0  0
    0.2694  -23.4973    0.0000 C   0  0
    3.4053  -26.0412    0.0000 C   0  0
    1.1283  -27.7962    0.0000 C   0  0  2  0  0  0
    1.9533  -27.7962    0.0000 H   0  0
    3.1596  -26.8703    0.0000 H   0  0
    2.3627  -29.3380    0.0000 H   0  0
  1  2  1  0
  2  3  1  0
  3  4  1  0
  4  5  2  0
  5  6  1  0
  6  7  1  0
 33  7  1  0
  3 33  1  0
 33  8  1  0
  8  9  1  6
  9 10  1  0
  7 10  1  0
  8 11  1  0
 11 12  1  0
 12 13  1  0
  3 13  1  0
 13 14  1  0
 14 15  1  0
 15 16  2  0
 15 17  1  0
 12 18  1  1
 18 19  2  0
 18 20  1  0
 20 21  1  0
 12 22  1  0
 11 23  1  0
 23 24  1  0
 24 25  2  0
  8 25  1  0
 25 26  1  0
 26 27  2  0
 27 28  1  0
 28 29  2  0
 24 29  1  0
 28 30  1  0
 30 31  1  0
 23 32  1  0
 33 34  1  1
 11 35  1  6
 13 36  1  1
M  END
>  <MOLREGNO>
509912

>  <CHEMBLID>
CHEMBL526546

>  <SYNONYMS>
Vindoline

>  <MAX_PHASE>
0

>  <MOLWEIGHT>
456.53

>  <ALOGP>
1.94

>  <PSA>
88.54

>  <HBA>
8

>  <HBD>
1

>  <RO5>
0

>  <RTB>
6

>  <RO3>
N

>  <ACD_MOST_APKA>
11.4

>  <ACD_MOST_BPKA>
5.65

>  <ACD_LOGP>
3.02

>  <ACD_LOGD>
3.02

>  <AROMATIC_RINGS>
1

>  <HEAVY_ATOMS>
33

>  <QED_WEIGHTED>
.51

>  <HBA_LIPINSKI>
8

>  <HBD_LIPINSKI>
1

>  <NUM_LIPINSKI_RO5_VIOLATIONS>
0

>  <MW_MONOISOTOPIC>
456.226

>  <MOLECULAR_SPECIES>
NEUTRAL

>  <FULL_MOLFORMULA>
C25H32N2O6

$$$$

  SciTegic12231509382D

 27 31  0  0  0  0            999 V2000
   18.6544   -7.7134    0.0000 C   0  0
   19.3960   -8.0797    0.0000 N   0  0
   17.9061   -8.0620    0.0000 C   0  0
   19.5755   -8.8828    0.0000 C   0  0  1  0  0  0
   19.0534   -9.5185    0.0000 C   0  0  2  0  0  0
   19.3412  -10.2841    0.0000 C   0  0
   20.1518  -10.4206    0.0000 C   0  0  2  0  0  0
   20.6739   -9.7849    0.0000 C   0  0
   20.3854   -9.0124    0.0000 C   0  0
   18.2298   -9.5136    0.0000 C   0  0
   17.7154   -8.8674    0.0000 C   0  0
   17.7740  -10.2025    0.0000 N   0  0
   16.9780   -9.9820    0.0000 C   0  0
   16.9421   -9.1576    0.0000 C   0  0
   16.2113   -8.7782    0.0000 C   0  0
   15.5160   -9.2222    0.0000 C   0  0
   15.5561  -10.0495    0.0000 C   0  0
   16.2872  -10.4252    0.0000 C   0  0
   21.0213   -8.4875    0.0000 C   0  0
   18.7740   -8.6659    0.0000 H   0  0
   18.4697  -11.2127    0.0000 C   0  0
   17.6569  -11.2461    0.0000 O   0  0
   18.9626  -11.8747    0.0000 O   0  0
   18.6358  -12.6326    0.0000 C   0  0
   21.7945   -8.7760    0.0000 C   0  0
   20.1284   -7.7782    0.0000 C   0  0
   20.2269  -11.2425    0.0000 H   0  0
  3  1  1  0
  1  2  1  0
  2  4  1  0
 11  3  1  0
  5 10  1  0
  4  5  1  0
  4  9  1  0
  5  6  1  0
  6  7  1  0
  7  8  1  0
  8  9  2  0
 10 11  2  0
 11 14  1  0
 13 12  1  0
 12 10  1  0
 13 14  2  0
 14 15  1  0
 15 16  2  0
 16 17  1  0
 17 18  2  0
 18 13  1  0
  9 19  1  0
  4 20  1  1
  5 21  1  1
 21 22  2  0
 21 23  1  0
 23 24  1  0
 19 25  1  0
  2 26  1  0
  7 26  1  0
  7 27  1  6
M  END
>  <MOLREGNO>
1427214

>  <CHEMBLID>
CHEMBL2163793

>  <SYNONYMS>
Catharanthine Base

>  <MAX_PHASE>
0

>  <MOLWEIGHT>
336.43

>  <ALOGP>
3.88

>  <PSA>
45.33

>  <HBA>
3

>  <HBD>
1

>  <RO5>
0

>  <RTB>
3

>  <RO3>
N

>  <ACD_MOST_APKA>
-3.64

>  <ACD_MOST_BPKA>


>  <ACD_LOGP>
-.49

>  <ACD_LOGD>
-5.99

>  <AROMATIC_RINGS>
2

>  <HEAVY_ATOMS>
25

>  <QED_WEIGHTED>
.68

>  <HBA_LIPINSKI>
4

>  <HBD_LIPINSKI>
1

>  <NUM_LIPINSKI_RO5_VIOLATIONS>
0

>  <MW_MONOISOTOPIC>
336.1838

>  <MOLECULAR_SPECIES>
ACID

>  <FULL_MOLFORMULA>
C21H24N2O2

$$$$

  SciTegic12231509382D

 60 68  0  0  0  0            999 V2000
    4.6224   -9.1096    0.0000 C   0  0  1  0  0  0
    4.9866   -8.3745    0.0000 C   0  0  1  0  0  0
    3.8052   -9.1707    0.0000 C   0  0  1  0  0  0
    3.3449   -8.4861    0.0000 C   0  0  2  0  0  0
    3.2992   -9.8306    0.0000 N   0  0
    2.5211   -9.5455    0.0000 C   0  0
    2.5503   -8.7210    0.0000 C   0  0
    1.8447   -8.2810    0.0000 C   0  0
    1.1178   -8.6728    0.0000 C   0  0
    1.0936   -9.4999    0.0000 C   0  0
    1.7903   -9.9285    0.0000 C   0  0
    3.6986   -7.7478    0.0000 C   0  0  2  0  0  0
    4.5207   -7.6972    0.0000 C   0  0  1  0  0  0
    4.8900   -6.9650    0.0000 C   0  0
    4.4331   -6.2788    0.0000 C   0  0
    3.6109   -6.3296    0.0000 C   0  0
    3.2457   -7.0664    0.0000 N   0  0
    2.5981   -8.1279    0.0000 C   0  0
    2.5343   -7.3069    0.0000 C   0  0
    5.3378   -7.6376    0.0000 C   0  0
    5.7008   -6.8971    0.0000 C   0  0
    5.8089   -8.3137    0.0000 O   0  0
    5.0821   -9.8033    0.0000 C   0  0
    3.5211  -10.6219    0.0000 C   0  0
    4.2595   -9.8624    0.0000 H   0  0
   -0.1715   -8.8145    0.0000 C   0  0
    0.0311   -9.6131    0.0000 O   0  0
   -0.9719   -9.0223    0.0000 O   0  0
   -1.1955   -9.8154    0.0000 C   0  0
   -1.5605   -7.4075    0.0000 C   0  0
   -1.0782   -6.7380    0.0000 C   0  0
   -1.4160   -5.9868    0.0000 C   0  0
   -2.2362   -5.8994    0.0000 C   0  0
   -2.7173   -6.5735    0.0000 C   0  0
   -2.3766   -7.3264    0.0000 C   0  0
    6.6243   -8.3683    0.0000 C   0  0
    6.9835   -9.1064    0.0000 O   0  0
    7.0788   -7.6853    0.0000 C   0  0
    4.3004   -7.1905    0.0000 H   0  0
   -1.0752   -8.0713    0.0000 N   0  0
    5.4428   -9.1075    0.0000 O   0  0
   -0.2914   -6.9928    0.0000 C   0  0
   -0.2873   -7.8207    0.0000 C   0  0
    0.4278   -8.2288    0.0000 C   0  0  2  0  0  0
    1.1433   -7.8136    0.0000 C   0  0
    0.4195   -6.5730    0.0000 C   0  0
    1.1360   -6.9859    0.0000 C   0  0  1  0  0  0
    1.8479   -6.5742    0.0000 C   0  0
    1.8495   -5.7478    0.0000 C   0  0
    1.1330   -5.3349    0.0000 C   0  0
    0.4149   -5.7484    0.0000 N   0  0
    2.5642   -5.3357    0.0000 C   0  0
    3.2784   -5.7486    0.0000 C   0  0
    1.8459   -7.3958    0.0000 H   0  0
    0.5042  -10.0791    0.0000 O   0  0
    0.5000  -10.9041    0.0000 C   0  0
    4.7144  -10.5419    0.0000 O   0  0
    5.9055   -9.7525    0.0000 O   0  0
    6.3613  -10.4402    0.0000 C   0  0
   -0.5083   -6.1916    0.0000 C   0  0
  9 44  1  0
 44 26  1  1
 26 27  2  0
 42 31  1  0
 26 28  1  0
 28 29  1  0
 30 31  2  0
 31 32  1  0
 32 33  2  0
 33 34  1  0
 34 35  2  0
 35 30  1  0
 22 36  1  0
 36 37  2  0
 36 38  1  0
 12 39  1  6
  4 12  1  0
  3  1  1  0
  1  2  1  0
 30 40  1  0
 40 43  1  0
  1 41  1  0
  2 13  1  0
  3  4  1  0
  4  7  1  0
  6  5  1  0
  5  3  1  0
  6  7  2  0
  7  8  1  0
  8  9  2  0
 42 43  2  0
  9 10  1  0
 10 11  2  0
 11  6  1  0
 43 44  1  0
 44 45  1  0
 45 47  1  0
 46 47  1  0
 12 13  1  0
 12 17  1  0
 13 14  1  0
 14 15  2  0
 15 16  1  0
 16 17  1  0
 46 51  1  0
 47 48  1  0
 48 49  2  0
 49 50  1  0
 50 51  1  0
  4 18  1  1
 49 52  1  0
 18 19  1  0
 52 53  1  0
 19 17  1  0
 47 54  1  6
 13 20  1  6
 10 55  1  0
 20 21  1  0
 55 56  1  0
  2 22  1  1
 23 57  2  0
  1 23  1  6
 23 58  1  0
  5 24  1  0
 58 59  1  0
  3 25  1  1
 42 60  1  0
 60 51  1  0
M  END
>  <MOLREGNO>
560078

>  <CHEMBLID>
CHEMBL553025

>  <SYNONYMS>
VINORELBINE | Vinorelbine Ditartarate | NAVELBINE | Navelbine | Vinorelbine Base | VINORELBINE TARTRATE

>  <MAX_PHASE>
4

>  <MOLWEIGHT>
778.93

>  <ALOGP>
5.4

>  <PSA>
133.87

>  <HBA>
11

>  <HBD>
2

>  <RO5>
3

>  <RTB>
10

>  <RO3>
N

>  <ACD_MOST_APKA>
11.49

>  <ACD_MOST_BPKA>
5.83

>  <ACD_LOGP>
4.21

>  <ACD_LOGD>
4.19

>  <AROMATIC_RINGS>
3

>  <HEAVY_ATOMS>
57

>  <QED_WEIGHTED>
.2

>  <HBA_LIPINSKI>
12

>  <HBD_LIPINSKI>
2

>  <NUM_LIPINSKI_RO5_VIOLATIONS>
2

>  <MW_MONOISOTOPIC>
778.3942

>  <MOLECULAR_SPECIES>
NEUTRAL

>  <FULL_MOLFORMULA>
C45H54N4O8

$$$$

  SciTegic12231509382D

 58 66  0  0  1  0            999 V2000
    1.6841   -5.0523    0.0000 C   0  0  2  0  0  0
    1.3473   -4.3054    0.0000 C   0  0
    3.9735   -6.9170    0.0000 C   0  0  1  0  0  0
    4.6911   -8.1715    0.0000 C   0  0  2  0  0  0
    3.9735   -7.7517    0.0000 C   0  0  2  0  0  0
    5.4087   -6.9121    0.0000 C   0  0  2  0  0  0
    1.8208   -3.6464    0.0000 C   0  0
    3.1925   -8.0104    0.0000 N   0  0
    4.7155   -6.5460    0.0000 C   0  0  2  0  0  0
    2.6702   -7.3221    0.0000 C   0  0
    5.4087   -7.7371    0.0000 C   0  0  1  0  0  0
    3.1534   -6.6534    0.0000 C   0  0
    1.9965   -5.8041    0.0000 C   0  0
    0.5711   -4.0467    0.0000 N   0  0
    1.8452   -7.2392    0.0000 C   0  0
    1.3473   -2.9777    0.0000 C   0  0
    2.8166   -5.8919    0.0000 C   0  0
    4.7155   -5.6869    0.0000 N   0  0
    0.8836   -5.3354    0.0000 C   0  0
    4.6911   -9.1137    0.0000 C   0  0
    1.5084   -6.4777    0.0000 C   0  0
    0.5711   -3.2364    0.0000 C   0  0
    2.9924   -3.4463    0.0000 N   0  0
    3.3975   -6.1262    0.0000 C   0  0
    6.0384   -8.1032    0.0000 O   0  0
    6.1262   -6.4923    0.0000 C   0  0
    6.6631   -7.8250    0.0000 C   0  0
    3.8124   -5.4819    0.0000 C   0  0
    5.3305   -8.5230    0.0000 O   0  0
    6.1213   -5.6673    0.0000 C   0  0
    3.9832   -9.5334    0.0000 O   0  0
    0.9129   -6.0091    0.0000 O   0  0
    6.6534   -7.2636    0.0000 O   0  0
    6.0188   -7.2343    0.0000 C   0  0
    2.9924   -8.8940    0.0000 C   0  0
    5.4037   -5.2719    0.0000 C   0  0
    0.1514   -5.0279    0.0000 O   0  0
    5.4233   -9.5237    0.0000 O   0  0
    0.6786   -6.4630    0.0000 O   0  0
    1.5133   -2.1869    0.0000 C   0  0
   -0.0390   -2.6945    0.0000 C   0  0
    7.2099   -8.0983    0.0000 C   0  0
    6.0237   -9.0404    0.0000 C   0  0
    0.2246   -7.0195    0.0000 C   0  0
   -0.5955   -5.4087    0.0000 C   0  0
    6.5899   -6.8145    0.0000 C   0  0
    0.9129   -1.6451    0.0000 C   0  0
    0.1367   -1.8940    0.0000 C   0  0
    4.6862   -7.2831    0.0000 H   0  0
    3.9735   -8.5669    0.0000 H   0  0
    4.2299   -4.1608    0.0000 C   0  0
    3.8174   -3.4463    0.0000 C   0  0
    2.5798   -4.1608    0.0000 C   0  0
    2.9924   -4.8753    0.0000 C   0  0  1  0  0  0
    3.8174   -4.8753    0.0000 C   0  0
    5.0549   -4.1608    0.0000 C   0  0
    2.4796   -5.2585    0.0000 C   0  0
    3.2526   -5.6581    0.0000 H   0  0
  2  1  1  0
  3 12  1  0
  4  5  1  0
  5  3  1  0
  6  9  1  0
  7  2  2  0
  8 10  1  0
  9  3  1  0
 10 12  2  0
 11  6  1  0
 12 17  1  0
 13  1  1  0
 14  2  1  0
 15 21  2  0
 16  7  1  0
 17 13  2  0
 18  9  1  0
  1 19  1  1
 20  4  1  0
 21 13  1  0
 22 14  1  0
 23  7  1  0
  3 24  1  1
 11 25  1  1
 26  6  1  0
 27 25  1  0
 28 24  1  0
  4 29  1  1
 30 26  2  0
 31 20  2  0
 32 19  2  0
 33 27  2  0
  6 34  1  6
 35  8  1  0
 36 18  1  0
 37 19  1  0
 38 20  1  0
 39 21  1  0
 40 16  2  0
 41 22  2  0
 42 27  1  0
 43 38  1  0
 44 39  1  0
 45 37  1  0
 46 34  1  0
 47 40  1  0
 48 41  1  0
  9 49  1  6
  5 50  1  1
 15 10  1  0
 16 22  1  0
  5  8  1  0
 47 48  2  0
 18 28  1  0
  4 11  1  0
 36 30  1  0
 51 52  1  0
 53 54  1  0
 54 55  1  0
 55 51  2  0
 52 23  1  0
 23 53  1  0
 51 56  1  0
  1 57  1  0
 57 54  1  0
 54 58  1  6
M  END
>  <MOLREGNO>
1592404

>  <CHEMBLID>
CHEMBL3039593

>  <SYNONYMS>


>  <MAX_PHASE>
0

>  <MOLWEIGHT>
750.88

>  <ALOGP>
5.03

>  <PSA>
133.87

>  <HBA>
11

>  <HBD>
2

>  <RO5>
3

>  <RTB>
9

>  <RO3>
N

>  <ACD_MOST_APKA>


>  <ACD_MOST_BPKA>
6.41

>  <ACD_LOGP>
4.68

>  <ACD_LOGD>
4.64

>  <AROMATIC_RINGS>
3

>  <HEAVY_ATOMS>
55

>  <QED_WEIGHTED>
.23

>  <HBA_LIPINSKI>
12

>  <HBD_LIPINSKI>
2

>  <NUM_LIPINSKI_RO5_VIOLATIONS>
2

>  <MW_MONOISOTOPIC>
750.3629

>  <MOLECULAR_SPECIES>
NEUTRAL

>  <FULL_MOLFORMULA>
C43H50N4O8

$$$$

  SciTegic12231509382D

 62 70  0  0  0  0            999 V2000
    4.3473   -3.3521    0.0000 C   0  0  2  0  0  0
    7.2580   -3.4021    0.0000 C   0  0  1  0  0  0
    8.5821   -3.9183    0.0000 C   0  0  2  0  0  0
    3.6435   -2.9315    0.0000 C   0  0
    7.7701   -4.0433    0.0000 C   0  0  2  0  0  0
    8.3698   -2.5192    0.0000 C   0  0  2  0  0  0
    7.3204   -4.7387    0.0000 N   0  0
    7.5578   -2.6317    0.0000 C   0  0  2  0  0  0
    6.5292   -4.5180    0.0000 C   0  0
    8.8902   -3.1563    0.0000 C   0  0  1  0  0  0
    6.4834   -3.6935    0.0000 C   0  0
    5.0593   -3.7559    0.0000 C   0  0
    3.6477   -2.1154    0.0000 C   0  0
    2.8565   -3.1938    0.0000 N   0  0
    5.8214   -4.9677    0.0000 C   0  0
    5.7547   -3.3187    0.0000 C   0  0
    7.0414   -1.9946    0.0000 N   0  0
    3.7559   -3.9183    0.0000 C   0  0
    2.8607   -1.8530    0.0000 C   0  0
    8.7195   -4.7387    0.0000 C   0  0
    5.0926   -4.5804    0.0000 C   0  0
    2.3735   -2.5276    0.0000 C   0  0
    4.3473   -0.8703    0.0000 N   0  0
    6.4293   -3.1563    0.0000 C   0  0
    5.0593   -2.9399    0.0000 C   0  0
    9.7022   -3.0314    0.0000 O   0  0
    8.6696   -1.7531    0.0000 C   0  0
    2.9232   -0.8786    0.0000 C   0  0
    5.7714   -0.8703    0.0000 C   0  0  2  0  0  0
    5.0593   -2.1070    0.0000 C   0  0  1  0  0  0
   10.2186   -3.6685    0.0000 C   0  0
    6.2836   -2.3443    0.0000 C   0  0
    9.3941   -3.7809    0.0000 O   0  0
    8.1574   -1.1035    0.0000 C   0  0
    5.0593   -0.4580    0.0000 C   0  0
    4.3473   -1.7031    0.0000 C   0  0
    8.0907   -5.2634    0.0000 O   0  0
    3.9558   -4.7178    0.0000 O   0  0
    3.6352   -0.4664    0.0000 C   0  0
    9.9188   -4.4389    0.0000 O   0  0
    5.7714   -1.7031    0.0000 C   0  0
    9.1651   -2.2944    0.0000 C   0  0
    7.6160   -5.5132    0.0000 C   0  0
    7.3454   -1.2200    0.0000 C   0  0
    2.9606   -3.6935    0.0000 O   0  0
    9.4941   -5.0261    0.0000 O   0  0
    4.3930   -5.0177    0.0000 O   0  0
    5.7672   -0.0458    0.0000 O   0  0
    2.5234   -1.0951    0.0000 C   0  0
    1.5490   -2.4402    0.0000 C   0  0
    6.4917   -1.2909    0.0000 C   0  0
   11.0306   -3.5436    0.0000 C   0  0
    9.6315   -5.8421    0.0000 C   0  0
    2.3693   -4.2681    0.0000 C   0  0
    4.4222   -5.8421    0.0000 C   0  0
    9.3691   -1.4949    0.0000 C   0  0
    7.2080   -0.8786    0.0000 C   0  0
    1.7072   -1.0077    0.0000 C   0  0
    1.2117   -1.6822    0.0000 C   0  0
    8.2656   -4.5679    0.0000 H   0  0
    5.7714   -2.5192    0.0000 H   0  0
    8.1407   -3.2188    0.0000 H   0  0
  2 11  1  0
  3  5  1  0
  4  1  1  0
  5  2  1  0
  6  8  1  0
  7  9  1  0
  8  2  1  0
  9 15  2  0
 10  6  1  0
 11 16  2  0
 12  1  1  0
 13  4  2  0
 14  4  1  0
 15 21  1  0
 16 12  1  0
 17  8  1  0
  1 18  1  1
 19 13  1  0
 20  3  1  0
 21 12  2  0
 22 14  1  0
 23 36  1  0
  2 24  1  1
 25  1  1  0
 10 26  1  1
 27  6  1  0
 28 13  1  0
 29 41  1  0
 30 25  1  0
 31 26  1  0
 32 24  1  0
  3 33  1  1
 34 44  1  0
 35 29  1  0
 36 30  1  0
 37 20  2  0
 38 18  2  0
 39 28  1  0
 40 31  2  0
 41 30  1  0
  6 42  1  6
 43  7  1  0
 44 17  1  0
 45 18  1  0
 46 20  1  0
 47 21  1  0
 48 29  1  0
 49 19  2  0
 50 22  2  0
 29 51  1  6
 52 31  1  0
 53 46  1  0
 54 45  1  0
 55 47  1  0
 56 42  1  0
 57 51  1  0
 58 49  1  0
 59 50  1  0
  5 60  1  1
 30 61  1  6
  8 62  1  6
 11  9  1  0
 19 22  1  0
 23 39  1  0
 23 35  1  0
  7  5  1  0
 58 59  2  0
 17 32  1  0
  3 10  1  0
 27 34  2  0
M  END
>  <MOLREGNO>
71516

>  <CHEMBLID>
CHEMBL159

>  <SYNONYMS>
VELBAN | [3H]-Vinblastine | VINBLASTINE | Velban | VINBLASTINE SULFATE | 29060-LE

>  <MAX_PHASE>
4

>  <MOLWEIGHT>
810.97

>  <ALOGP>
4.89

>  <PSA>
154.1

>  <HBA>
12

>  <HBD>
3

>  <RO5>
2

>  <RTB>
10

>  <RO3>
N

>  <ACD_MOST_APKA>
11.36

>  <ACD_MOST_BPKA>
7.9

>  <ACD_LOGP>
5.92

>  <ACD_LOGD>
5.43

>  <AROMATIC_RINGS>
3

>  <HEAVY_ATOMS>
59

>  <QED_WEIGHTED>
.19

>  <HBA_LIPINSKI>
13

>  <HBD_LIPINSKI>
3

>  <NUM_LIPINSKI_RO5_VIOLATIONS>
1

>  <MW_MONOISOTOPIC>
810.4204

>  <MOLECULAR_SPECIES>
NEUTRAL

>  <FULL_MOLFORMULA>
C46H58N4O9

$$$$

  SciTegic01111613442D

 63 71  0  0  0  0            999 V2000
   -4.0318    2.6323    0.0000 C   0  0
   -4.8982    1.4328    0.0000 C   0  0
   -4.2817    0.1000    0.0000 C   0  0
   -2.5657    2.5157    0.0000 C   0  0
   -1.9493    1.1329    0.0000 C   0  0
   -2.7823    0.0000    0.0000 C   0  0
   -1.9493   -1.2495    0.0000 N   0  0
   -0.5665    0.6997    0.0000 C   0  0  1  0  0  0
   -0.5665   -0.7830    0.0000 C   0  0  2  0  0  0
    0.6997   -1.5161    0.0000 C   0  0  2  0  0  0
    2.0326   -0.7830    0.0000 C   0  0  1  0  0  0
    0.7331    1.4328    0.0000 C   0  0  2  0  0  0
    2.0326    0.6831    0.0000 C   0  0  1  0  0  0
    3.2821    1.3995    0.0000 C   0  0
    3.2821    2.8989    0.0000 C   0  0
    1.5328    3.8485    0.0000 C   0  0
    0.4165    2.8656    0.0000 N   0  0
   -1.0329    3.0488    0.0000 C   0  0
   -1.6660    1.6994    0.0000 C   0  0
    1.5396    2.0239    0.0000 H   0  0
    0.7317   -0.0662    0.0000 C   0  0
    3.3301   -1.5369    0.0000 O   0  0
   -0.1341    0.4343    0.0000 C   0  0
    1.9918   -2.2373    0.0000 C   0  0
   -0.1839   -1.9843    0.0000 O   0  0
   -0.6660   -1.7781    0.0000 H   0  0
   -2.4280   -2.6688    0.0000 C   0  0
   -3.6043   -2.9061    0.0000 O   0  0
   -6.3498    1.0513    0.0000 O   0  0
   -6.6666   -0.1062    0.0000 C   0  0
   -3.4938   10.8146    0.0000 C   0  0
   -2.0219   10.4275    0.0000 C   0  0
   -1.6105    8.9579    0.0000 C   0  0
   -4.5672    9.7266    0.0000 C   0  0
   -4.1595    8.2477    0.0000 C   0  0
   -2.6747    7.8661    0.0000 C   0  0
   -2.5995    6.3377    0.0000 N   0  0
   -4.9882    6.9642    0.0000 C   0  0
   -4.0174    5.7869    0.0000 C   0  0
   -4.1524    4.1293    0.0000 C   0  0  2  0  0  0
   -5.3409    2.9779    0.0000 C   0  0
   -7.0085    2.9587    0.0000 C   0  0  1  0  0  0
   -7.9309    2.2195    0.0000 C   0  0
   -9.0443    2.6672    0.0000 C   0  0  1  0  0  0
   -9.2167    3.8467    0.0000 C   0  0
   -8.2794    4.5692    0.0000 N   0  0
   -6.6273    7.3107    0.0000 C   0  0
   -7.8512    6.1969    0.0000 C   0  0
   -7.1661    4.1215    0.0000 C   0  0
   -2.7002    4.5081    0.0000 C   0  0
   -1.6453    3.4406    0.0000 O   0  0
  -10.1472    3.1401    0.0000 O   0  0
   -8.7968    1.2077    0.0000 C   0  0
   -9.7015    0.4193    0.0000 C   0  0
   -2.3824    5.6653    0.0000 O   0  0
   -0.4842    3.7435    0.0000 C   0  0
   -6.6717    2.0172    0.0000 H   0  0
    2.8371   -1.7030    0.0000 O   0  0
    2.0524   -3.7369    0.0000 O   0  0
    3.1147   -4.2952    0.0000 C   0  0
    4.6325   -0.7911    0.0000 C   0  0
    5.6700   -1.3942    0.0000 O   0  0
    4.6358    0.2089    0.0000 C   0  0
  2 29  1  0
 29 30  1  0
  1  2  2  0
  2  3  1  0
  3  6  2  0
  5  4  2  0
  4  1  1  0
  5  6  1  0
  6  7  1  0
  7  9  1  0
  8  5  1  0
  8  9  1  0
  8 12  1  0
  9 10  1  0
 10 11  1  0
 11 13  1  0
 12 13  1  0
 12 17  1  0
 13 14  1  0
 14 15  2  0
 15 16  1  0
 16 17  1  0
 17 18  1  0
 18 19  1  0
  8 19  1  1
 12 20  1  6
 13 21  1  6
 21 23  1  0
 31 32  2  0
 32 33  1  0
 33 36  2  0
 35 34  2  0
 34 31  1  0
 35 36  1  0
 36 37  1  0
 37 39  1  0
 38 35  1  0
 38 39  2  0
 39 40  1  0
 40 41  1  0
 41 42  1  0
 49 42  1  0
 42 43  1  0
 43 44  1  0
 44 45  1  0
 45 46  1  0
 38 47  1  0
 47 48  1  0
 46 48  1  0
 46 49  1  0
 40 50  1  6
 50 51  1  0
 44 52  1  0
 44 53  1  1
 53 54  1  0
 50 55  2  0
 51 56  1  0
 42 57  1  6
  1 40  1  0
 11 22  1  1
 24 58  2  0
 10 24  1  6
 24 59  1  0
 10 25  1  0
 59 60  1  0
  9 26  1  1
 22 61  1  0
  7 27  1  0
 61 62  2  0
 27 28  2  0
 61 63  1  0
M  END
>  <MOLREGNO>
142808

>  <CHEMBLID>
CHEMBL90555

>  <SYNONYMS>
NSC-67574 | VINCRISTINE SULFATE PFS | Kyocristine | VINCRISTINE | 37231 | VINCRISTINE SULFATE | Leurocristine Sulfate | MARQIBO KIT | ONCOVIN | Vincasar | VINCREX | VINCASAR PFS

>  <MAX_PHASE>
4

>  <MOLWEIGHT>
824.96

>  <ALOGP>
3.97

>  <PSA>
171.17

>  <HBA>
12

>  <HBD>
3

>  <RO5>
2

>  <RTB>
10

>  <RO3>
N

>  <ACD_MOST_APKA>
11.1

>  <ACD_MOST_BPKA>
7.9

>  <ACD_LOGP>
5.75

>  <ACD_LOGD>
5.2

>  <AROMATIC_RINGS>
3

>  <HEAVY_ATOMS>
60

>  <QED_WEIGHTED>
.15

>  <HBA_LIPINSKI>
14

>  <HBD_LIPINSKI>
3

>  <NUM_LIPINSKI_RO5_VIOLATIONS>
1

>  <MW_MONOISOTOPIC>
824.3996

>  <MOLECULAR_SPECIES>
NEUTRAL

>  <FULL_MOLFORMULA>
C46H56N4O10

$$$$

  SciTegic01161211242D

 24 27  0  0  0  0            999 V2000
    8.0119  -17.6824    0.0000 C   0  0
    8.8396  -17.6892    0.0000 C   0  0
    9.2573  -16.9790    0.0000 C   0  0
    8.8486  -16.2568    0.0000 C   0  0
   10.0823  -16.9859    0.0000 C   0  0  1  0  0  0
   10.5629  -17.6529    0.0000 O   0  0
   10.5741  -16.3181    0.0000 C   0  0  2  0  0  0
   11.3566  -16.5795    0.0000 C   0  0
   11.3465  -17.4022    0.0000 C   0  0
   12.0529  -17.8204    0.0000 C   0  0
   12.7698  -17.4170    0.0000 C   0  0
   12.7759  -16.5911    0.0000 C   0  0
   12.0688  -16.1766    0.0000 C   0  0
   12.0439  -18.6454    0.0000 O   0  0
   11.3249  -19.0500    0.0000 C   0  0
   13.4932  -16.1836    0.0000 C   0  0
   14.2048  -16.6011    0.0000 C   0  0
   14.9222  -16.1937    0.0000 C   0  0
    7.6029  -16.9690    0.0000 C   0  0
    8.0164  -16.2547    0.0000 C   0  0
    7.4648  -15.6408    0.0000 O   0  0
    6.7104  -15.9755    0.0000 C   0  0
    6.7959  -16.7964    0.0000 O   0  0
   10.3248  -15.5315    0.0000 C   0  0
 10 11  2  0
  5  3  1  6
 11 12  1  0
  5  6  1  0
 12 13  2  0
 13  8  1  0
  2  3  1  0
 10 14  1  0
  1  2  2  0
 14 15  1  0
  6  9  1  0
 12 16  1  0
  8  7  1  0
 16 17  2  0
  7  5  1  0
 17 18  1  0
 19 20  2  0
  3  4  2  0
  4 20  1  0
  8  9  2  0
 19  1  1  0
  9 10  1  0
 20 21  1  0
 21 22  1  0
 22 23  1  0
 23 19  1  0
  7 24  1  1
M  END
>  <MOLREGNO>
581354

>  <CHEMBLID>
CHEMBL578403

>  <SYNONYMS>
(-)-LICARIN B

>  <MAX_PHASE>
0

>  <MOLWEIGHT>
324.37

>  <ALOGP>
4.53

>  <PSA>
36.92

>  <HBA>
4

>  <HBD>
0

>  <RO5>
0

>  <RTB>
3

>  <RO3>
N

>  <ACD_MOST_APKA>


>  <ACD_MOST_BPKA>


>  <ACD_LOGP>
5.2

>  <ACD_LOGD>
5.2

>  <AROMATIC_RINGS>
2

>  <HEAVY_ATOMS>
24

>  <QED_WEIGHTED>
.83

>  <HBA_LIPINSKI>
4

>  <HBD_LIPINSKI>
0

>  <NUM_LIPINSKI_RO5_VIOLATIONS>
0

>  <MW_MONOISOTOPIC>
324.1362

>  <MOLECULAR_SPECIES>


>  <FULL_MOLFORMULA>
C20H20O4

$$$$

  SciTegic01161211222D

 34 35  0  0  0  0            999 V2000
    2.6375    0.1333    0.0000 C   0  0  2  0  0  0
    3.3167    0.6083    0.0000 C   0  0  2  0  0  0
    1.8917    0.4833    0.0000 C   0  0
    3.2500    1.4250    0.0000 C   0  0
    4.0625    0.2500    0.0000 O   0  0
    2.7042   -0.6875    0.0000 O   0  0
    2.0292   -1.1542    0.0000 C   0  0
    4.1292   -0.5667    0.0000 C   0  0
    1.2792   -0.8042    0.0000 C   0  0
    4.8417   -0.1542    0.0000 C   0  0
   -1.5708   -1.0417    0.0000 C   0  0
    7.7000   -0.1542    0.0000 C   0  0
    5.5625   -0.5667    0.0000 C   0  0
    0.6042   -1.2750    0.0000 C   0  0
    3.9292    1.8958    0.0000 O   0  0
    1.8250    1.3083    0.0000 O   0  0
   -1.6333   -0.2167    0.0000 C   0  0
    7.7000    0.6708    0.0000 C   0  0
    1.2167    0.0208    0.0000 O   0  0
    2.5042    1.7833    0.0000 O   0  0
   -0.8208   -1.3917    0.0000 C   0  0
    6.9875   -0.5667    0.0000 C   0  0
    4.1292   -1.3917    0.0000 O   0  0
    2.0917   -1.9792    0.0000 O   0  0
    6.2750   -0.1542    0.0000 C   0  0
   -0.1458   -0.9250    0.0000 C   0  0
   -0.9583    0.2583    0.0000 C   0  0
    6.9792    1.0833    0.0000 C   0  0
   -2.2458   -1.5042    0.0000 O   0  0
    8.4125   -0.5667    0.0000 O   0  0
    6.2667    0.6625    0.0000 C   0  0
   -0.2125   -0.0917    0.0000 C   0  0
    8.4125    1.0833    0.0000 O   0  0
   -2.3833    0.1375    0.0000 O   0  0
  2  1  1  0
  3  1  1  0
  4  2  1  0
  2  5  1  6
  1  6  1  1
  7  6  1  0
  8  5  1  0
  9  7  1  0
 10  8  1  0
 11 21  1  0
 12 22  1  0
 13 10  2  0
 14  9  2  0
 15  4  1  0
 16  3  1  0
 17 27  1  0
 18 28  1  0
 19  3  2  0
 20  4  2  0
 21 26  2  0
 22 25  2  0
 23  8  2  0
 24  7  2  0
 25 13  1  0
 26 14  1  0
 27 32  2  0
 28 31  2  0
 29 11  1  0
 30 12  1  0
 31 25  1  0
 32 26  1  0
 33 18  1  0
 34 17  1  0
 11 17  2  0
 12 18  2  0
M  END
>  <MOLREGNO>
43745

>  <CHEMBLID>
CHEMBL282731

>  <SYNONYMS>
L-chicoric acid | cichoric acid

>  <MAX_PHASE>
0

>  <MOLWEIGHT>
474.37

>  <ALOGP>
2.39

>  <PSA>
208.11

>  <HBA>
12

>  <HBD>
6

>  <RO5>
2

>  <RTB>
11

>  <RO3>
N

>  <ACD_MOST_APKA>
1.43

>  <ACD_MOST_BPKA>


>  <ACD_LOGP>
3.09

>  <ACD_LOGD>
-1.68

>  <AROMATIC_RINGS>
2

>  <HEAVY_ATOMS>
34

>  <QED_WEIGHTED>
.16

>  <HBA_LIPINSKI>
12

>  <HBD_LIPINSKI>
6

>  <NUM_LIPINSKI_RO5_VIOLATIONS>
2

>  <MW_MONOISOTOPIC>
474.0798

>  <MOLECULAR_SPECIES>
ACID

>  <FULL_MOLFORMULA>
C22H18O12

$$$$

  SciTegic01161211232D

 30 33  0  0  0  0            999 V2000
   -0.4781   -6.0573    0.0000 C   0  0
   -1.1931   -5.6457    0.0000 C   0  0
   -1.9082   -6.0656    0.0000 C   0  0
    0.2203   -5.6416    0.0000 C   0  0
   -2.6233   -5.6541    0.0000 C   0  0
   -0.4781   -6.8804    0.0000 C   0  0
   -1.9082   -6.8804    0.0000 C   0  0
   -1.1931   -7.2920    0.0000 O   0  0
   -3.3342   -6.0656    0.0000 C   0  0
    0.2328   -7.2879    0.0000 C   0  0
   -2.6233   -7.3045    0.0000 C   0  0
   -3.3342   -6.8929    0.0000 C   0  0
   -2.6233   -4.8309    0.0000 C   0  0
   -3.3342   -4.4234    0.0000 C   0  0
   -1.2015   -4.8225    0.0000 O   0  0
   -3.3383   -3.6003    0.0000 C   0  0
    0.2203   -4.8184    0.0000 O   0  0
   -4.0452   -5.6581    0.0000 O   0  0
   -4.0452   -7.3045    0.0000 O   0  0
   -4.0576   -3.1887    0.0000 C   0  0
   -2.6274   -3.1804    0.0000 C   0  0
   -4.7561   -6.0697    0.0000 C   0  0
    0.9437   -6.0403    0.0000 C   0  0
    0.9437   -6.8679    0.0000 C   0  0
    1.6566   -7.2795    0.0000 O   0  0
    2.3741   -6.8679    0.0000 C   0  0
    2.3740   -6.0402    0.0000 C   0  0
    1.6565   -5.6240    0.0000 C   0  0
    3.1971   -6.8639    0.0000 C   0  0
    2.7813   -7.5748    0.0000 C   0  0
  8  6  1  0
  9  5  1  0
 24 10  2  0
 10  6  1  0
 11  7  2  0
 12 11  1  0
 13  5  1  0
 14 13  1  0
 15  2  2  0
 16 14  2  0
 17  4  1  0
 18  9  1  0
 19 12  1  0
 20 16  1  0
 21 16  1  0
 22 18  1  0
  3  7  1  0
  9 12  2  0
 23 24  1  0
  2  1  1  0
  3  2  1  0
  4  1  1  0
  5  3  2  0
  6  1  2  0
 23 28  1  0
 24 25  1  0
 25 26  1  0
 26 27  1  0
 27 28  1  0
  7  8  1  0
 26 29  1  0
 23  4  2  0
 26 30  1  0
M  END
>  <MOLREGNO>
462997

>  <CHEMBLID>
CHEMBL464119

>  <SYNONYMS>
3-Isomangostin

>  <MAX_PHASE>
0

>  <MOLWEIGHT>
410.46

>  <ALOGP>
5.42

>  <PSA>
85.22

>  <HBA>
6

>  <HBD>
2

>  <RO5>
1

>  <RTB>
3

>  <RO3>
N

>  <ACD_MOST_APKA>
7.04

>  <ACD_MOST_BPKA>


>  <ACD_LOGP>
6.49

>  <ACD_LOGD>
5.61

>  <AROMATIC_RINGS>
2

>  <HEAVY_ATOMS>
30

>  <QED_WEIGHTED>
.66

>  <HBA_LIPINSKI>
6

>  <HBD_LIPINSKI>
2

>  <NUM_LIPINSKI_RO5_VIOLATIONS>
1

>  <MW_MONOISOTOPIC>
410.1729

>  <MOLECULAR_SPECIES>
NEUTRAL

>  <FULL_MOLFORMULA>
C24H26O6

$$$$

  SciTegic07101214422D

 36 39  0  0  0  0            999 V2000
   -3.9750   -0.4625    0.0000 C   0  0
   -3.9750   -1.2875    0.0000 C   0  0  1  0  0  0
   -3.2630   -1.6958    0.0000 C   0  0
   -3.2630   -0.0458    0.0000 C   0  0
   -2.5510   -0.4625    0.0000 C   0  0  1  0  0  0
   -2.5545   -1.2875    0.0000 C   0  0
   -1.8457   -1.7007    0.0000 C   0  0
   -1.1289   -1.2935    0.0000 C   0  0
   -1.8387   -0.0507    0.0000 C   0  0  2  0  0  0
   -1.1254   -0.4734    0.0000 C   0  0  2  0  0  0
   -1.1083    1.1819    0.0000 C   0  0  2  0  0  0
   -1.8333    0.7761    0.0000 C   0  0
   -0.3950    0.7592    0.0000 C   0  0  1  0  0  0
   -0.4084   -0.0673    0.0000 C   0  0  2  0  0  0
    0.3735   -0.3355    0.0000 C   0  0
    0.8703    0.3253    0.0000 C   0  0
    0.3952    1.0018    0.0000 C   0  0  2  0  0  0
   -0.4000    1.5875    0.0000 C   0  0
   -0.4167   -0.8917    0.0000 O   0  0
   -1.0982    2.0068    0.0000 O   0  0
   -1.8075    2.4281    0.0000 C   0  0
   -1.7974    3.2530    0.0000 O   0  0
   -2.5270    2.0244    0.0000 C   0  0
   -3.2363    2.4457    0.0000 C   0  0
   -3.9558    2.0420    0.0000 C   0  0
   -3.2262    3.2627    0.0000 C   0  0
   -4.6652    2.4633    0.0000 C   0  0
   -3.9660    1.2171    0.0000 C   0  0
    1.2167    1.0042    0.0000 O   0  0
    0.6042    1.8042    0.0000 C   0  0
    1.3995    2.0233    0.0000 O   0  0
    0.0167    2.3834    0.0000 C   0  0
   -1.1333    0.3542    0.0000 O   0  0
   -4.6889   -1.7010    0.0000 O   0  0
   -2.5583    0.3625    0.0000 C   0  0
   -1.8458   -0.8750    0.0000 H   0  0
 16 17  1  0
 17 13  1  0
  7  8  1  0
 13 18  1  1
  8 10  1  0
 14 19  1  1
  9 10  1  0
 11 20  1  1
  3  6  1  0
 20 21  1  0
  5  4  1  0
 21 22  2  0
  5  6  1  0
 21 23  1  0
 23 24  2  0
  9 12  1  0
 24 25  1  0
 10 14  1  0
 24 26  1  0
 13 11  1  0
 25 27  1  0
 11 12  1  0
 25 28  1  0
 13 14  1  0
 17 29  1  0
  1  2  1  0
 17 30  1  6
  1  4  1  0
 30 31  2  0
  2  3  1  0
 30 32  1  0
  5  9  1  0
 10 33  1  1
  6  7  2  0
  2 34  1  1
 14 15  1  0
  5 35  1  1
 15 16  1  0
  9 36  1  6
M  END
>  <MOLREGNO>
1339041

>  <CHEMBLID>
CHEMBL2023660

>  <SYNONYMS>
Caudatin

>  <MAX_PHASE>
0

>  <MOLWEIGHT>
490.63

>  <ALOGP>
2.46

>  <PSA>
124.29

>  <HBA>
7

>  <HBD>
4

>  <RO5>
0

>  <RTB>
5

>  <RO3>
N

>  <ACD_MOST_APKA>


>  <ACD_MOST_BPKA>


>  <ACD_LOGP>
.52

>  <ACD_LOGD>
.52

>  <AROMATIC_RINGS>
0

>  <HEAVY_ATOMS>
35

>  <QED_WEIGHTED>
.27

>  <HBA_LIPINSKI>
7

>  <HBD_LIPINSKI>
4

>  <NUM_LIPINSKI_RO5_VIOLATIONS>
0

>  <MW_MONOISOTOPIC>
490.2931

>  <MOLECULAR_SPECIES>


>  <FULL_MOLFORMULA>
C28H42O7

$$$$

  CDK    9/16/09,9:20

 70 78  0  0  0  0  0  0  0  0999 V2000
   -0.5684  -17.7373    0.0000 O   0  0  0  0  0  0  0  0  0  0  0  0
   -1.2808  -17.3227    0.0000 C   0  0  0  0  0  0  0  0  0  0  0  0
   -1.2793  -16.4984    0.0000 O   0  0  0  0  0  0  0  0  0  0  0  0
   -1.9875  -16.0840    0.0000 C   0  0  0  0  0  0  0  0  0  0  0  0
   -2.7051  -16.4901    0.0000 C   0  0  0  0  0  0  0  0  0  0  0  0
   -2.7098  -17.3153    0.0000 C   0  0  0  0  0  0  0  0  0  0  0  0
   -1.9971  -17.7343    0.0000 C   0  0  0  0  0  0  0  0  0  0  0  0
   -2.0011  -18.5585    0.0000 O   0  0  0  0  0  0  0  0  0  0  0  0
   -3.4265  -17.7225    0.0000 O   0  0  0  0  0  0  0  0  0  0  0  0
   -3.4159  -16.0729    0.0000 O   0  0  0  0  0  0  0  0  0  0  0  0
   -1.9816  -15.2598    0.0000 C   0  0  0  0  0  0  0  0  0  0  0  0
   -1.2649  -14.8529    0.0000 O   0  0  0  0  0  0  0  0  0  0  0  0
   -1.2866  -18.1461    0.0000 H   0  0  0  0  0  0  0  0  0  0  0  0
    1.5805  -18.9826    0.0000 C   0  0  0  0  0  0  0  0  0  0  0  0
    1.5932  -19.8068    0.0000 C   0  0  0  0  0  0  0  0  0  0  0  0
    0.8858  -20.2297    0.0000 O   0  0  0  0  0  0  0  0  0  0  0  0
    2.3132  -20.2078    0.0000 C   0  0  0  0  0  0  0  0  0  0  0  0
    2.3260  -21.0318    0.0000 O   0  0  0  0  0  0  0  0  0  0  0  0
    3.0205  -19.7847    0.0000 C   0  0  0  0  0  0  0  0  0  0  0  0
    3.7406  -20.1857    0.0000 O   0  0  0  0  0  0  0  0  0  0  0  0
    3.0079  -18.9606    0.0000 C   0  0  0  0  0  0  0  0  0  0  0  0
    2.2877  -18.5595    0.0000 O   0  0  0  0  0  0  0  0  0  0  0  0
    3.7151  -18.5375    0.0000 C   0  0  0  0  0  0  0  0  0  0  0  0
    0.8624  -18.5684    0.0000 O   0  0  0  0  0  0  0  0  0  0  0  0
    8.6486  -13.7958    0.0000 O   0  0  0  0  0  0  0  0  0  0  0  0
    8.6486  -14.6246    0.0000 C   0  0  0  0  0  0  0  0  0  0  0  0
    9.3624  -15.0367    0.0000 C   0  0  0  0  0  0  0  0  0  0  0  0
   10.0808  -14.6246    0.0000 C   0  0  0  0  0  0  0  0  0  0  0  0
   10.0808  -13.7958    0.0000 C   0  0  0  0  0  0  0  0  0  0  0  0
    9.3624  -13.3791    0.0000 C   0  0  0  0  0  0  0  0  0  0  0  0
    2.9992  -16.4977    0.0000 C   0  0  0  0  0  0  0  0  0  0  0  0
    2.9992  -17.3265    0.0000 C   0  0  0  0  0  0  0  0  0  0  0  0
    3.7129  -17.7386    0.0000 C   0  0  0  0  0  0  0  0  0  0  0  0
    3.7129  -16.0809    0.0000 C   0  0  0  0  0  0  0  0  0  0  0  0
    4.4313  -16.4977    0.0000 C   0  0  0  0  0  0  0  0  0  0  0  0
    4.4278  -17.3265    0.0000 C   0  0  0  0  0  0  0  0  0  0  0  0
    5.1398  -17.7415    0.0000 C   0  0  0  0  0  0  0  0  0  0  0  0
    5.8598  -17.3325    0.0000 C   0  0  0  0  0  0  0  0  0  0  0  0
    5.1468  -16.0840    0.0000 C   0  0  0  0  0  0  0  0  0  0  0  0
    5.8608  -16.5051    0.0000 C   0  0  0  0  0  0  0  0  0  0  0  0
    5.8744  -14.8501    0.0000 C   0  0  0  0  0  0  0  0  0  0  0  0
    5.1505  -15.2574    0.0000 C   0  0  0  0  0  0  0  0  0  0  0  0
    6.5884  -15.2713    0.0000 C   0  0  0  0  0  0  0  0  0  0  0  0
    6.5787  -16.0962    0.0000 C   0  0  0  0  0  0  0  0  0  0  0  0
    7.3603  -16.3604    0.0000 C   0  0  0  0  0  0  0  0  0  0  0  0
    7.3760  -15.0256    0.0000 C   0  0  0  0  0  0  0  0  0  0  0  0
    7.8547  -15.6970    0.0000 C   0  0  0  0  0  0  0  0  0  0  0  0
    8.6412  -15.4493    0.0000 O   0  0  0  0  0  0  0  0  0  0  0  0
    7.8667  -14.3629    0.0000 C   0  0  0  0  0  0  0  0  0  0  0  0
    4.4232  -15.6735    0.0000 C   0  0  0  0  0  0  0  0  0  0  0  0
    2.2853  -17.7386    0.0000 O   0  0  0  0  0  0  0  0  0  0  0  0
    6.5798  -14.4463    0.0000 C   0  0  0  0  0  0  0  0  0  0  0  0
    7.6190  -13.5768    0.0000 C   0  0  0  0  0  0  0  0  0  0  0  0
    5.1421  -16.9051    0.0000 H   0  0  0  0  0  0  0  0  0  0  0  0
    5.8518  -15.6781    0.0000 H   0  0  0  0  0  0  0  0  0  0  0  0
    6.5707  -16.9189    0.0000 H   0  0  0  0  0  0  0  0  0  0  0  0
    8.2603  -16.4061    0.0000 H   0  0  0  0  0  0  0  0  0  0  0  0
   10.7950  -13.3845    0.0000 C   0  0  0  0  0  0  0  0  0  0  0  0
    7.1568  -14.2265    0.0000 H   0  0  0  0  0  0  0  0  0  0  0  0
    1.5716  -17.3265    0.0000 C   0  0  0  0  0  0  0  0  0  0  0  0
    1.5747  -16.5058    0.0000 O   0  0  0  0  0  0  0  0  0  0  0  0
    0.8650  -16.0938    0.0000 C   0  0  0  0  0  0  0  0  0  0  0  0
    0.1488  -16.5024    0.0000 C   0  0  0  0  0  0  0  0  0  0  0  0
    0.1468  -17.3276    0.0000 C   0  0  0  0  0  0  0  0  0  0  0  0
    0.8610  -17.7442    0.0000 C   0  0  0  0  0  0  0  0  0  0  0  0
   -0.5634  -16.0877    0.0000 O   0  0  0  0  0  0  0  0  0  0  0  0
    0.8680  -15.2696    0.0000 C   0  0  0  0  0  0  0  0  0  0  0  0
    1.5834  -14.8603    0.0000 O   0  0  0  0  0  0  0  0  0  0  0  0
    1.5660  -18.1461    0.0000 H   0  0  0  0  0  0  0  0  0  0  0  0
    0.8654  -19.3870    0.0000 H   0  0  0  0  0  0  0  0  0  0  0  0
  5 10  1  6  0  0  0 
  2  7  1  0  0  0  0 
  4 11  1  1  0  0  0 
 14 15  1  0  0  0  0 
 35 39  1  0  0  0  0 
 36 37  2  0  0  0  0 
 37 38  1  0  0  0  0 
 38 40  1  0  0  0  0 
 39 40  1  0  0  0  0 
 15 16  1  1  0  0  0 
 15 17  1  0  0  0  0 
 17 18  1  1  0  0  0 
 17 19  1  0  0  0  0 
 39 42  1  0  0  0  0 
 40 44  1  0  0  0  0 
 43 41  1  0  0  0  0 
 41 42  1  0  0  0  0 
 43 44  1  0  0  0  0 
 19 20  1  6  0  0  0 
 19 21  1  0  0  0  0 
 21 22  1  0  0  0  0 
 44 45  1  0  0  0  0 
 45 47  1  0  0  0  0 
 46 43  1  0  0  0  0 
 46 47  1  0  0  0  0 
 21 23  1  1  0  0  0 
 14 22  1  0  0  0  0 
  3  4  1  0  0  0  0 
 26 25  1  6  0  0  0 
 47 48  1  0  0  0  0 
 48 26  1  0  0  0  0 
 26 49  1  0  0  0  0 
 49 46  1  0  0  0  0 
 11 12  1  0  0  0  0 
 35 50  1  1  0  0  0 
  4  5  1  0  0  0  0 
 32 51  1  1  0  0  0 
  2 13  1  6  0  0  0 
 43 52  1  1  0  0  0 
  5  6  1  0  0  0  0 
 49 53  1  6  0  0  0 
  6  7  1  0  0  0  0 
 39 54  1  6  0  0  0 
  2  3  1  0  0  0  0 
 40 55  1  1  0  0  0 
 25 30  1  0  0  0  0 
 44 56  1  6  0  0  0 
 26 27  1  0  0  0  0 
 47 57  1  6  0  0  0 
 27 28  1  0  0  0  0 
 29 58  1  6  0  0  0 
 28 29  1  0  0  0  0 
 46 59  1  6  0  0  0 
 29 30  1  0  0  0  0 
 51 60  1  0  0  0  0 
 60 61  1  0  0  0  0 
 31 32  1  0  0  0  0 
  7  8  1  6  0  0  0 
  6  9  1  1  0  0  0 
  1  2  1  0  0  0  0 
 60 65  1  0  0  0  0 
 61 62  1  0  0  0  0 
 62 63  1  0  0  0  0 
 63 64  1  0  0  0  0 
 64 65  1  0  0  0  0 
 65 24  1  6  0  0  0 
 64  1  1  1  0  0  0 
 31 34  1  0  0  0  0 
 63 66  1  6  0  0  0 
 32 33  1  0  0  0  0 
 62 67  1  1  0  0  0 
 33 36  1  0  0  0  0 
 67 68  1  0  0  0  0 
 35 34  1  0  0  0  0 
 60 69  1  6  0  0  0 
 24 14  1  0  0  0  0 
 35 36  1  0  0  0  0 
 14 70  1  1  0  0  0 
M  END
>  <MOLREGNO>
463807

>  <CHEMBLID>
CHEMBL500045

>  <SYNONYMS>
Gracillin

>  <MAX_PHASE>
0

>  <MOLWEIGHT>
885.04

>  <ALOGP>
.28

>  <PSA>
255.9

>  <HBA>
17

>  <HBD>
9

>  <RO5>
3

>  <RTB>
8

>  <RO3>
N

>  <ACD_MOST_APKA>
12.78

>  <ACD_MOST_BPKA>


>  <ACD_LOGP>
3.56

>  <ACD_LOGD>
3.55

>  <AROMATIC_RINGS>
0

>  <HEAVY_ATOMS>
62

>  <QED_WEIGHTED>
.15

>  <HBA_LIPINSKI>
17

>  <HBD_LIPINSKI>
9

>  <NUM_LIPINSKI_RO5_VIOLATIONS>
2

>  <MW_MONOISOTOPIC>
884.477

>  <MOLECULAR_SPECIES>
NEUTRAL

>  <FULL_MOLFORMULA>
C45H72O17

$$$$

  CDK    9/16/09,9:20

 69 77  0  0  0  0  0  0  0  0999 V2000
   12.7634  -23.8616    0.0000 O   0  0  0  0  0  0  0  0  0  0  0  0
   13.1924  -24.5594    0.0000 C   0  0  0  0  0  0  0  0  0  0  0  0
   14.0156  -24.5389    0.0000 C   0  0  0  0  0  0  0  0  0  0  0  0
   14.4491  -25.2366    0.0000 C   0  0  0  0  0  0  0  0  0  0  0  0
   14.0551  -25.9594    0.0000 C   0  0  0  0  0  0  0  0  0  0  0  0
   13.2366  -25.9844    0.0000 C   0  0  0  0  0  0  0  0  0  0  0  0
   12.8030  -25.2821    0.0000 O   0  0  0  0  0  0  0  0  0  0  0  0
   12.8425  -26.7071    0.0000 C   0  0  0  0  0  0  0  0  0  0  0  0
   20.6969  -20.1932    0.0000 C   0  0  0  0  0  0  0  0  0  0  0  0
   21.3924  -20.6334    0.0000 C   0  0  0  0  0  0  0  0  0  0  0  0
   22.1190  -20.2509    0.0000 C   0  0  0  0  0  0  0  0  0  0  0  0
   22.1523  -19.4286    0.0000 C   0  0  0  0  0  0  0  0  0  0  0  0
   21.4568  -18.9929    0.0000 C   0  0  0  0  0  0  0  0  0  0  0  0
   20.7251  -19.3718    0.0000 O   0  0  0  0  0  0  0  0  0  0  0  0
   14.9800  -21.8700    0.0000 C   0  0  0  0  0  0  0  0  0  0  0  0
   14.9455  -22.6968    0.0000 C   0  0  0  0  0  0  0  0  0  0  0  0
   15.6476  -23.1361    0.0000 C   0  0  0  0  0  0  0  0  0  0  0  0
   15.7119  -21.4760    0.0000 C   0  0  0  0  0  0  0  0  0  0  0  0
   16.4140  -21.9208    0.0000 C   0  0  0  0  0  0  0  0  0  0  0  0
   16.3820  -22.7504    0.0000 C   0  0  0  0  0  0  0  0  0  0  0  0
   17.0788  -23.1901    0.0000 C   0  0  0  0  0  0  0  0  0  0  0  0
   17.8153  -22.8059    0.0000 C   0  0  0  0  0  0  0  0  0  0  0  0
   17.1428  -21.5309    0.0000 C   0  0  0  0  0  0  0  0  0  0  0  0
   17.8447  -21.9797    0.0000 C   0  0  0  0  0  0  0  0  0  0  0  0
   17.9188  -20.3238    0.0000 C   0  0  0  0  0  0  0  0  0  0  0  0
   17.1795  -20.7072    0.0000 C   0  0  0  0  0  0  0  0  0  0  0  0
   18.6162  -20.7680    0.0000 C   0  0  0  0  0  0  0  0  0  0  0  0
   18.5797  -21.5941    0.0000 C   0  0  0  0  0  0  0  0  0  0  0  0
   19.3500  -21.8885    0.0000 C   0  0  0  0  0  0  0  0  0  0  0  0
   19.4133  -20.5501    0.0000 C   0  0  0  0  0  0  0  0  0  0  0  0
   19.8702  -21.2442    0.0000 C   0  0  0  0  0  0  0  0  0  0  0  0
   20.6645  -21.0201    0.0000 O   0  0  0  0  0  0  0  0  0  0  0  0
   19.9275  -19.9073    0.0000 C   0  0  0  0  0  0  0  0  0  0  0  0
   16.4377  -21.0950    0.0000 C   0  0  0  0  0  0  0  0  0  0  0  0
   18.6387  -19.9403    0.0000 C   0  0  0  0  0  0  0  0  0  0  0  0
   22.8803  -19.0507    0.0000 C   0  0  0  0  0  0  0  0  0  0  0  0
   19.7075  -19.1106    0.0000 C   0  0  0  0  0  0  0  0  0  0  0  0
   14.2216  -23.0856    0.0000 O   0  0  0  0  0  0  0  0  0  0  0  0
   13.5196  -22.6464    0.0000 C   0  0  0  0  0  0  0  0  0  0  0  0
   13.5569  -21.8227    0.0000 O   0  0  0  0  0  0  0  0  0  0  0  0
   12.8586  -21.3842    0.0000 C   0  0  0  0  0  0  0  0  0  0  0  0
   12.1284  -21.7676    0.0000 C   0  0  0  0  0  0  0  0  0  0  0  0
   12.0964  -22.5919    0.0000 C   0  0  0  0  0  0  0  0  0  0  0  0
   12.7916  -23.0359    0.0000 C   0  0  0  0  0  0  0  0  0  0  0  0
   12.9454  -20.4380    0.0000 C   0  0  0  0  0  0  0  0  0  0  0  0
   11.5494  -21.3141    0.0000 O   0  0  0  0  0  0  0  0  0  0  0  0
   17.1350  -22.3510    0.0000 H   0  0  0  0  0  0  0  0  0  0  0  0
   17.8386  -21.1510    0.0000 H   0  0  0  0  0  0  0  0  0  0  0  0
   18.5700  -22.4188    0.0000 H   0  0  0  0  0  0  0  0  0  0  0  0
   20.2744  -21.9501    0.0000 H   0  0  0  0  0  0  0  0  0  0  0  0
   19.1152  -19.7838    0.0000 H   0  0  0  0  0  0  0  0  0  0  0  0
   14.1516  -22.1091    0.0000 H   0  0  0  0  0  0  0  0  0  0  0  0
   10.7262  -21.3150    0.0000 C   0  0  0  0  0  0  0  0  0  0  0  0
   10.3128  -22.0291    0.0000 C   0  0  0  0  0  0  0  0  0  0  0  0
    9.4942  -22.0301    0.0000 C   0  0  0  0  0  0  0  0  0  0  0  0
    9.0800  -21.3172    0.0000 C   0  0  0  0  0  0  0  0  0  0  0  0
    9.4934  -20.6033    0.0000 C   0  0  0  0  0  0  0  0  0  0  0  0
   10.3165  -20.6068    0.0000 O   0  0  0  0  0  0  0  0  0  0  0  0
    9.0791  -19.8949    0.0000 C   0  0  0  0  0  0  0  0  0  0  0  0
   12.3716  -24.5857    0.0000 H   0  0  0  0  0  0  0  0  0  0  0  0
   11.1224  -20.5928    0.0000 H   0  0  0  0  0  0  0  0  0  0  0  0
   14.4096  -23.8116    0.0000 O   0  0  0  0  0  0  0  0  0  0  0  0
   15.2723  -25.2116    0.0000 O   0  0  0  0  0  0  0  0  0  0  0  0
   14.4888  -26.6616    0.0000 O   0  0  0  0  0  0  0  0  0  0  0  0
   13.6245  -20.1768    0.0000 O   0  0  0  0  0  0  0  0  0  0  0  0
   11.3658  -22.9784    0.0000 O   0  0  0  0  0  0  0  0  0  0  0  0
   10.7271  -22.7419    0.0000 O   0  0  0  0  0  0  0  0  0  0  0  0
    9.0808  -22.7441    0.0000 O   0  0  0  0  0  0  0  0  0  0  0  0
    8.2568  -21.3183    0.0000 O   0  0  0  0  0  0  0  0  0  0  0  0
  6  7  1  0  0  0  0 
  6  8  1  6  0  0  0 
  2  7  1  0  0  0  0 
  9 10  1  0  0  0  0 
  9 14  1  6  0  0  0 
 10 11  1  0  0  0  0 
 11 12  1  0  0  0  0 
 12 13  1  0  0  0  0 
 13 14  1  0  0  0  0 
 15 16  1  0  0  0  0 
 15 18  1  0  0  0  0 
 16 17  1  0  0  0  0 
 17 20  1  0  0  0  0 
 19 18  1  0  0  0  0 
 19 20  1  0  0  0  0 
 19 23  1  0  0  0  0 
 20 21  2  0  0  0  0 
 21 22  1  0  0  0  0 
 22 24  1  0  0  0  0 
 23 24  1  0  0  0  0 
 23 26  1  0  0  0  0 
 24 28  1  0  0  0  0 
 27 25  1  0  0  0  0 
 25 26  1  0  0  0  0 
 27 28  1  0  0  0  0 
 28 29  1  0  0  0  0 
 30 27  1  0  0  0  0 
 30 31  1  0  0  0  0 
 31 32  1  0  0  0  0 
 32  9  1  0  0  0  0 
  9 33  1  0  0  0  0 
 33 30  1  0  0  0  0 
 19 34  1  1  0  0  0 
 27 35  1  1  0  0  0 
 12 36  1  6  0  0  0 
 33 37  1  6  0  0  0 
 16 38  1  1  0  0  0 
 39 38  1  0  0  0  0 
 39 40  1  0  0  0  0 
 39 44  1  0  0  0  0 
 40 41  1  0  0  0  0 
 41 42  1  0  0  0  0 
 42 43  1  0  0  0  0 
 43 44  1  0  0  0  0 
 41 45  1  1  0  0  0 
 42 46  1  6  0  0  0 
 44  1  1  6  0  0  0 
 23 47  1  6  0  0  0 
 24 48  1  1  0  0  0 
 28 49  1  6  0  0  0 
 31 50  1  6  0  0  0 
 29 31  1  0  0  0  0 
 30 51  1  6  0  0  0 
 39 52  1  6  0  0  0 
 53 46  1  0  0  0  0 
 53 54  1  0  0  0  0 
 54 55  1  0  0  0  0 
 55 56  1  0  0  0  0 
 56 57  1  0  0  0  0 
 57 58  1  0  0  0  0 
 57 59  1  6  0  0  0 
 53 58  1  0  0  0  0 
  2 60  1  6  0  0  0 
 53 61  1  6  0  0  0 
  2  1  1  0  0  0  0 
  2  3  1  0  0  0  0 
  3  4  1  0  0  0  0 
  4  5  1  0  0  0  0 
  5  6  1  0  0  0  0 
  4 63  1  6  0  0  0 
 45 65  1  0  0  0  0 
  3 62  1  6  0  0  0 
 43 66  1  1  0  0  0 
  5 64  1  1  0  0  0 
 54 67  1  6  0  0  0 
 55 68  1  6  0  0  0 
 56 69  1  1  0  0  0 
M  END
>  <MOLREGNO>
444203

>  <CHEMBLID>
CHEMBL507001

>  <SYNONYMS>
Dioscin

>  <MAX_PHASE>
0

>  <MOLWEIGHT>
869.04

>  <ALOGP>
1.17

>  <PSA>
235.67

>  <HBA>
16

>  <HBD>
8

>  <RO5>
3

>  <RTB>
7

>  <RO3>
N

>  <ACD_MOST_APKA>
12.64

>  <ACD_MOST_BPKA>


>  <ACD_LOGP>
3.96

>  <ACD_LOGD>
3.96

>  <AROMATIC_RINGS>
0

>  <HEAVY_ATOMS>
61

>  <QED_WEIGHTED>
.17

>  <HBA_LIPINSKI>
16

>  <HBD_LIPINSKI>
8

>  <NUM_LIPINSKI_RO5_VIOLATIONS>
2

>  <MW_MONOISOTOPIC>
868.482

>  <MOLECULAR_SPECIES>
NEUTRAL

>  <FULL_MOLFORMULA>
C45H72O16

$$$$

  CDK    9/16/09,9:19

 35 40  0  0  0  0  0  0  0  0999 V2000
   -2.7063   -1.4292    0.0000 C   0  0  0  0  0  0  0  0  0  0  0  0
   -2.7063   -0.6043    0.0000 C   0  0  0  0  0  0  0  0  0  0  0  0
   -1.9941   -0.1938    0.0000 C   0  0  0  0  0  0  0  0  0  0  0  0
   -1.9941   -1.8439    0.0000 C   0  0  0  0  0  0  0  0  0  0  0  0
   -1.2776   -1.4292    0.0000 C   0  0  0  0  0  0  0  0  0  0  0  0
   -0.5612   -1.8439    0.0000 C   0  0  0  0  0  0  0  0  0  0  0  0
    0.1511   -1.4292    0.0000 C   0  0  0  0  0  0  0  0  0  0  0  0
    0.1511   -0.6043    0.0000 C   0  0  0  0  0  0  0  0  0  0  0  0
    0.8634   -0.1938    0.0000 C   0  0  0  0  0  0  0  0  0  0  0  0
    1.6483   -0.4455    0.0000 C   0  0  0  0  0  0  0  0  0  0  0  0
    2.1348    0.2208    0.0000 C   0  0  0  0  0  0  0  0  0  0  0  0
    2.6213   -0.4455    0.0000 H   0  0  0  0  0  0  0  0  0  0  0  0
    2.9197    0.4766    0.0000 O   0  0  0  0  0  0  0  0  0  0  0  0
    1.6483    0.8912    0.0000 C   0  0  0  0  0  0  0  0  0  0  0  0
    1.2896    1.6318    0.0000 H   0  0  0  0  0  0  0  0  0  0  0  0
    2.1348    1.5533    0.0000 C   0  0  0  0  0  0  0  0  0  0  0  0
    2.9197    1.3017    0.0000 C   0  0  0  0  0  0  0  0  0  0  0  0
    3.6745    0.9658    0.0000 C   0  0  0  0  0  0  0  0  0  0  0  0
    2.8352    2.1199    0.0000 O   0  0  0  0  0  0  0  0  0  0  0  0
    3.5016    2.6063    0.0000 C   0  0  0  0  0  0  0  0  0  0  0  0
    4.2564    2.2704    0.0000 C   0  0  0  0  0  0  0  0  0  0  0  0
    4.3448    1.4480    0.0000 C   0  0  0  0  0  0  0  0  0  0  0  0
    4.9185    2.7569    0.0000 C   0  0  0  0  0  0  0  0  0  0  0  0
    1.8790    2.3382    0.0000 C   0  0  0  0  0  0  0  0  0  0  0  0
    0.8634    0.6312    0.0000 C   0  0  0  0  0  0  0  0  0  0  0  0
    0.8634    1.4563    0.0000 C   0  0  0  0  0  0  0  0  0  0  0  0
    0.1511    1.0459    0.0000 C   0  0  0  0  0  0  0  0  0  0  0  0
   -0.5612    0.6312    0.0000 C   0  0  0  0  0  0  0  0  0  0  0  0
   -0.5612   -0.1938    0.0000 C   0  0  0  0  0  0  0  0  0  0  0  0
   -1.2776   -0.6043    0.0000 C   0  0  0  0  0  0  0  0  0  0  0  0
   -1.2776    0.2208    0.0000 C   0  0  0  0  0  0  0  0  0  0  0  0
   -0.5612   -1.0188    0.0000 H   0  0  0  0  0  0  0  0  0  0  0  0
    0.1511    0.2208    0.0000 H   0  0  0  0  0  0  0  0  0  0  0  0
    0.8634   -1.0188    0.0000 H   0  0  0  0  0  0  0  0  0  0  0  0
   -3.4218   -1.8433    0.0000 O   0  0  0  0  0  0  0  0  0  0  0  0
  1  2  1  0  0  0  0 
  2  3  1  0  0  0  0 
  1  4  1  0  0  0  0 
  4  5  1  0  0  0  0 
  5  6  2  0  0  0  0 
  6  7  1  0  0  0  0 
  7  8  1  0  0  0  0 
  8  9  1  0  0  0  0 
  9 10  1  0  0  0  0 
 10 11  1  0  0  0  0 
 11 12  1  6  0  0  0 
 11 13  1  0  0  0  0 
 11 14  1  0  0  0  0 
 14 15  1  6  0  0  0 
 14 16  1  0  0  0  0 
 16 17  1  0  0  0  0 
 13 17  1  0  0  0  0 
 17 18  1  0  0  0  0 
 17 19  1  6  0  0  0 
 19 20  1  0  0  0  0 
 20 21  1  0  0  0  0 
 21 22  1  0  0  0  0 
 18 22  1  0  0  0  0 
 21 23  1  6  0  0  0 
 16 24  1  6  0  0  0 
 14 25  1  0  0  0  0 
  9 25  1  0  0  0  0 
 25 26  1  1  0  0  0 
 25 27  1  0  0  0  0 
 27 28  1  0  0  0  0 
 28 29  1  0  0  0  0 
  8 29  1  0  0  0  0 
 29 30  1  0  0  0  0 
  3 30  1  0  0  0  0 
  5 30  1  0  0  0  0 
 30 31  1  1  0  0  0 
 29 32  1  6  0  0  0 
  8 33  1  1  0  0  0 
  9 34  1  6  0  0  0 
  1 35  1  1  0  0  0 
M  END
>  <MOLREGNO>
63895

>  <CHEMBLID>
CHEMBL412437

>  <SYNONYMS>
Disogenin | Diosgenin

>  <MAX_PHASE>
0

>  <MOLWEIGHT>
414.62

>  <ALOGP>
4.63

>  <PSA>
38.69

>  <HBA>
3

>  <HBD>
1

>  <RO5>
0

>  <RTB>
0

>  <RO3>
N

>  <ACD_MOST_APKA>


>  <ACD_MOST_BPKA>


>  <ACD_LOGP>
6.6

>  <ACD_LOGD>
6.6

>  <AROMATIC_RINGS>
0

>  <HEAVY_ATOMS>
30

>  <QED_WEIGHTED>
.59

>  <HBA_LIPINSKI>
3

>  <HBD_LIPINSKI>
1

>  <NUM_LIPINSKI_RO5_VIOLATIONS>
0

>  <MW_MONOISOTOPIC>
414.3134

>  <MOLECULAR_SPECIES>
NEUTRAL

>  <FULL_MOLFORMULA>
C27H42O3

$$$$

  CDK    6/4/10,11:41

 11 11  0  0  0  0  0  0  0  0999 V2000
    8.0363   -8.5452    0.0000 N   0  0  0  0  0  0  0  0  0  0  0  0
    8.7494   -8.1339    0.0000 C   0  0  0  0  0  0  0  0  0  0  0  0
    8.7465   -7.3073    0.0000 N   0  0  0  0  0  0  0  0  0  0  0  0
    9.4611   -8.5433    0.0000 O   0  0  0  0  0  0  0  0  0  0  0  0
    7.3249   -8.1344    0.0000 C   0  0  0  0  0  0  0  0  0  0  0  0
    7.3262   -7.3093    0.0000 C   0  0  0  0  0  0  0  0  0  0  0  0
    6.5420   -7.0532    0.0000 N   0  0  0  0  0  0  0  0  0  0  0  0
    6.0560   -7.7199    0.0000 C   0  0  0  0  0  0  0  0  0  0  0  0
    6.5400   -8.3881    0.0000 N   0  0  0  0  0  0  0  0  0  0  0  0
    5.2349   -7.7187    0.0000 O   0  0  0  0  0  0  0  0  0  0  0  0
    7.9911   -6.8277    0.0000 O   0  0  0  0  0  0  0  0  0  0  0  0
  5  1  1  0  0  0  0 
  2  3  1  0  0  0  0 
  2  4  2  0  0  0  0 
  6  7  1  0  0  0  0 
  7  8  1  0  0  0  0 
  8  9  1  0  0  0  0 
  9  5  1  0  0  0  0 
  5  6  1  0  0  0  0 
  8 10  2  0  0  0  0 
  1  2  1  0  0  0  0 
  6 11  2  0  0  0  0 
M  END
>  <MOLREGNO>
591623

>  <CHEMBLID>
CHEMBL593429

>  <SYNONYMS>
ALLANTOIN

>  <MAX_PHASE>
0

>  <MOLWEIGHT>
158.12

>  <ALOGP>
-1.76

>  <PSA>
113.32

>  <HBA>
3

>  <HBD>
4

>  <RO5>
0

>  <RTB>
1

>  <RO3>
N

>  <ACD_MOST_APKA>
8.3

>  <ACD_MOST_BPKA>


>  <ACD_LOGP>
-1.52

>  <ACD_LOGD>
-1.62

>  <AROMATIC_RINGS>
0

>  <HEAVY_ATOMS>
11

>  <QED_WEIGHTED>
.34

>  <HBA_LIPINSKI>
7

>  <HBD_LIPINSKI>
5

>  <NUM_LIPINSKI_RO5_VIOLATIONS>
0

>  <MW_MONOISOTOPIC>
158.044

>  <MOLECULAR_SPECIES>
NEUTRAL

>  <FULL_MOLFORMULA>
C4H6N4O3

$$$$

  SciTegic01161211212D

 18 19  0  0  0  0            999 V2000
   -1.7472    1.3833    0.0000 C   0  0
   -1.7483    0.5560    0.0000 C   0  0
   -1.0335    0.1431    0.0000 C   0  0
   -1.0353    1.7960    0.0000 C   0  0
   -0.3200    1.3869    0.0000 C   0  0
   -0.3193    0.5560    0.0000 C   0  0
    0.3997    0.1430    0.0000 O   0  0
    1.1182    0.5598    0.0000 C   0  0
    1.1134    1.3939    0.0000 C   0  0
    0.3940    1.8031    0.0000 C   0  0
    1.8343    0.1501    0.0000 O   0  0
   -1.0334   -0.6819    0.0000 C   0  0
   -0.3190   -1.0942    0.0000 C   0  0
   -0.3189   -1.9192    0.0000 C   0  0
    0.3957   -2.3316    0.0000 C   0  0
   -1.0332   -2.3318    0.0000 C   0  0
   -2.4630    0.1441    0.0000 O   0  0
   -3.1772    0.5571    0.0000 C   0  0
  8  9  1  0
  4  1  1  0
  9 10  2  0
 10  5  1  0
  8 11  2  0
  2  3  1  0
  3 12  1  0
  5  6  1  0
 12 13  1  0
  3  6  2  0
 13 14  2  0
  6  7  1  0
 14 15  1  0
  1  2  2  0
 14 16  1  0
  7  8  1  0
  2 17  1  0
  5  4  2  0
 17 18  1  0
M  END
>  <MOLREGNO>
78477

>  <CHEMBLID>
CHEMBL52229

>  <SYNONYMS>
Osthole

>  <MAX_PHASE>
0

>  <MOLWEIGHT>
244.29

>  <ALOGP>
3.74

>  <PSA>
35.53

>  <HBA>
3

>  <HBD>
0

>  <RO5>
0

>  <RTB>
3

>  <RO3>
N

>  <ACD_MOST_APKA>


>  <ACD_MOST_BPKA>


>  <ACD_LOGP>
3.69

>  <ACD_LOGD>
3.69

>  <AROMATIC_RINGS>
1

>  <HEAVY_ATOMS>
18

>  <QED_WEIGHTED>
.46

>  <HBA_LIPINSKI>
3

>  <HBD_LIPINSKI>
0

>  <NUM_LIPINSKI_RO5_VIOLATIONS>
0

>  <MW_MONOISOTOPIC>
244.1099

>  <MOLECULAR_SPECIES>


>  <FULL_MOLFORMULA>
C15H16O3

$$$$

  SciTegic06161611372D

 16 18  0  0  0  0            999 V2000
   -2.0045    1.2999    0.0000 C   0  0
   -2.8792    0.0850    0.0000 C   0  0
   -2.0045   -1.1298    0.0000 O   0  0
   -0.5831    0.8382    0.0000 C   0  0
   -0.5831   -0.6682    0.0000 C   0  0
    0.7168   -1.4214    0.0000 C   0  0
    0.7168    1.5915    0.0000 C   0  0
    1.9924    0.8382    0.0000 C   0  0
    1.9924   -0.6682    0.0000 C   0  0
    3.3044   -1.4214    0.0000 O   0  0
    4.6043   -0.6682    0.0000 C   0  0
    4.6043    0.8382    0.0000 C   0  0
    3.3044    1.5915    0.0000 C   0  0
    5.6440   -1.2674    0.0000 O   0  0
    0.7316    3.0922    0.0000 O   0  0
    1.7765    3.6824    0.0000 C   0  0
  7  4  1  0
  8  9  1  0
  4  1  1  0
  2  3  1  0
  4  5  2  0
  1  2  2  0
  5  6  1  0
  8 13  1  0
  9 10  1  0
 10 11  1  0
 11 12  1  0
 12 13  2  0
  6  9  2  0
 11 14  2  0
  3  5  1  0
  7 15  1  0
  8  7  2  0
 15 16  1  0
M  END

>  <MOLREGNO>
31196

>  <CHEMBLID>
CHEMBL24171

>  <SYNONYMS>
BERGAPTEN

>  <MAX_PHASE>
4

>  <MOLWEIGHT>
216.19

>  <ALOGP>
2.19

>  <PSA>
48.67

>  <HBA>
3

>  <HBD>
0

>  <RO5>
0

>  <RTB>
1

>  <RO3>
Y

>  <ACD_MOST_APKA>


>  <ACD_MOST_BPKA>


>  <ACD_LOGP>
2.04

>  <ACD_LOGD>
2.04

>  <AROMATIC_RINGS>
2

>  <HEAVY_ATOMS>
16

>  <QED_WEIGHTED>
.54

>  <HBA_LIPINSKI>
4

>  <HBD_LIPINSKI>
0

>  <NUM_LIPINSKI_RO5_VIOLATIONS>
0

>  <MW_MONOISOTOPIC>
216.0423

>  <MOLECULAR_SPECIES>


>  <FULL_MOLFORMULA>
C12H8O4

$$$$

  CDK    6/4/10,11:42

 15 17  0  0  0  0  0  0  0  0999 V2000
    2.2862  -12.1591    0.0000 O   0  0  0  0  0  0  0  0  0  0  0  0
    2.3080  -10.8297    0.0000 C   0  0  0  0  0  0  0  0  0  0  0  0
    1.8173  -11.4867    0.0000 C   0  0  0  0  0  0  0  0  0  0  0  0
    3.0867  -11.0976    0.0000 C   0  0  0  0  0  0  0  0  0  0  0  0
    3.0710  -11.9230    0.0000 C   0  0  0  0  0  0  0  0  0  0  0  0
    3.7741  -12.3469    0.0000 C   0  0  0  0  0  0  0  0  0  0  0  0
    3.8055  -10.6961    0.0000 C   0  0  0  0  0  0  0  0  0  0  0  0
    4.5130  -11.1248    0.0000 C   0  0  0  0  0  0  0  0  0  0  0  0
    4.4986  -11.9535    0.0000 C   0  0  0  0  0  0  0  0  0  0  0  0
    5.2052  -12.3781    0.0000 O   0  0  0  0  0  0  0  0  0  0  0  0
    5.9307  -11.9785    0.0000 C   0  0  0  0  0  0  0  0  0  0  0  0
    5.9451  -11.1497    0.0000 C   0  0  0  0  0  0  0  0  0  0  0  0
    5.2340  -10.7205    0.0000 C   0  0  0  0  0  0  0  0  0  0  0  0
    6.6338  -12.4023    0.0000 O   0  0  0  0  0  0  0  0  0  0  0  0
    3.7556  -13.1677    0.0000 O   0  0  0  0  0  0  0  0  0  0  0  0
  6  9  2  0  0  0  0 
  8  7  2  0  0  0  0 
  8  9  1  0  0  0  0 
  3  1  1  0  0  0  0 
  4  5  2  0  0  0  0 
  1  5  1  0  0  0  0 
  4  2  1  0  0  0  0 
  2  3  2  0  0  0  0 
  8 13  1  0  0  0  0 
  9 10  1  0  0  0  0 
 10 11  1  0  0  0  0 
 11 12  1  0  0  0  0 
 12 13  2  0  0  0  0 
  4  7  1  0  0  0  0 
 11 14  2  0  0  0  0 
  5  6  1  0  0  0  0 
  6 15  1  0  0  0  0 
M  END
>  <MOLREGNO>
206131

>  <CHEMBLID>
CHEMBL1192

>  <SYNONYMS>
Xanthoxol | Xanthotoxol | 8-Hydroxypsoralen

>  <MAX_PHASE>
0

>  <MOLWEIGHT>
202.16

>  <ALOGP>
1.96

>  <PSA>
59.67

>  <HBA>
3

>  <HBD>
1

>  <RO5>
0

>  <RTB>
0

>  <RO3>
Y

>  <ACD_MOST_APKA>
5.74

>  <ACD_MOST_BPKA>


>  <ACD_LOGP>
1.41

>  <ACD_LOGD>
-.25

>  <AROMATIC_RINGS>
2

>  <HEAVY_ATOMS>
15

>  <QED_WEIGHTED>
.52

>  <HBA_LIPINSKI>
4

>  <HBD_LIPINSKI>
1

>  <NUM_LIPINSKI_RO5_VIOLATIONS>
0

>  <MW_MONOISOTOPIC>
202.0266

>  <MOLECULAR_SPECIES>
ACID

>  <FULL_MOLFORMULA>
C11H6O4

$$$$

  SciTegic07111213582D

 21 23  0  0  0  0            999 V2000
   -2.4348   -0.7085    0.0000 C   0  0
   -1.7203   -1.1210    0.0000 C   0  0
   -1.0058   -0.7085    0.0000 C   0  0
   -1.0058    0.1165    0.0000 C   0  0
   -1.7203    0.5290    0.0000 C   0  0
   -2.4348    0.1165    0.0000 C   0  0
   -0.2914   -1.1210    0.0000 C   0  0
    0.4231   -0.7085    0.0000 C   0  0
    0.4231    0.1165    0.0000 C   0  0
    1.1376    0.5290    0.0000 C   0  0
    1.1376    1.3540    0.0000 C   0  0
    1.8521    1.7665    0.0000 C   0  0
    2.5665    1.3540    0.0000 C   0  0
    2.5665    0.5290    0.0000 C   0  0
    1.8521    0.1165    0.0000 C   0  0
   -0.2914    0.5290    0.0000 O   0  0
   -0.2914   -1.9460    0.0000 O   0  0
    3.2810    1.7665    0.0000 O   0  0
    1.1376   -1.1210    0.0000 O   0  0
   -3.1492    0.5290    0.0000 O   0  0
   -1.7203   -1.9460    0.0000 O   0  0
  1  2  2  0
  1  6  1  0
  2  3  1  0
  2 21  1  0
  3  4  2  0
  3  7  1  0
  4  5  1  0
  4 16  1  0
  5  6  2  0
  6 20  1  0
  8  7  1  0
  7 17  2  0
  8  9  2  0
  8 19  1  0
  9 10  1  0
  9 16  1  0
 10 11  2  0
 10 15  1  0
 11 12  1  0
 12 13  2  0
 13 14  1  0
 13 18  1  0
 14 15  2  0
M  END
>  <MOLREGNO>
46884

>  <CHEMBLID>
CHEMBL150

>  <SYNONYMS>
Trifolitin | Kempferol | Populnetin | Kaempferol | Robigenin | Rhamnolutein | Swartziol | Rhamnolutin | Pelargidenolon

>  <MAX_PHASE>
0

>  <MOLWEIGHT>
286.24

>  <ALOGP>
1.87

>  <PSA>
107.22

>  <HBA>
6

>  <HBD>
4

>  <RO5>
0

>  <RTB>
1

>  <RO3>
N

>  <ACD_MOST_APKA>
6.34

>  <ACD_MOST_BPKA>


>  <ACD_LOGP>
2.69

>  <ACD_LOGD>
1.38

>  <AROMATIC_RINGS>
2

>  <HEAVY_ATOMS>
21

>  <QED_WEIGHTED>
.64

>  <HBA_LIPINSKI>
6

>  <HBD_LIPINSKI>
4

>  <NUM_LIPINSKI_RO5_VIOLATIONS>
0

>  <MW_MONOISOTOPIC>
286.0477

>  <MOLECULAR_SPECIES>
ACID

>  <FULL_MOLFORMULA>
C15H10O6

$$$$

  CDK    6/4/10,11:42

 22 24  0  0  0  0  0  0  0  0999 V2000
   -1.9467  -10.0945    0.0000 C   0  0  0  0  0  0  0  0  0  0  0  0
   -1.2330   -9.6852    0.0000 C   0  0  0  0  0  0  0  0  0  0  0  0
   -1.2330   -8.8583    0.0000 C   0  0  0  0  0  0  0  0  0  0  0  0
   -1.9467   -8.4406    0.0000 O   0  0  0  0  0  0  0  0  0  0  0  0
   -2.6604   -9.6852    0.0000 C   0  0  0  0  0  0  0  0  0  0  0  0
   -2.6578   -8.8601    0.0000 C   0  0  0  0  0  0  0  0  0  0  0  0
   -3.3700   -8.4471    0.0000 C   0  0  0  0  0  0  0  0  0  0  0  0
   -4.0852   -8.8581    0.0000 C   0  0  0  0  0  0  0  0  0  0  0  0
   -4.0838   -9.6865    0.0000 C   0  0  0  0  0  0  0  0  0  0  0  0
   -3.3710  -10.0957    0.0000 C   0  0  0  0  0  0  0  0  0  0  0  0
   -1.9467  -10.9215    0.0000 O   0  0  0  0  0  0  0  0  0  0  0  0
   -0.5193   -8.4490    0.0000 C   0  0  0  0  0  0  0  0  0  0  0  0
    0.1959   -8.8663    0.0000 C   0  0  0  0  0  0  0  0  0  0  0  0
    0.9127   -8.4557    0.0000 C   0  0  0  0  0  0  0  0  0  0  0  0
    0.9157   -7.6278    0.0000 C   0  0  0  0  0  0  0  0  0  0  0  0
    0.1957   -7.2124    0.0000 C   0  0  0  0  0  0  0  0  0  0  0  0
   -0.5183   -7.6255    0.0000 C   0  0  0  0  0  0  0  0  0  0  0  0
    1.6324   -7.2154    0.0000 O   0  0  0  0  0  0  0  0  0  0  0  0
   -0.5175  -10.0997    0.0000 O   0  0  0  0  0  0  0  0  0  0  0  0
   -3.3700  -10.9226    0.0000 O   0  0  0  0  0  0  0  0  0  0  0  0
   -4.8013   -8.4445    0.0000 O   0  0  0  0  0  0  0  0  0  0  0  0
    2.3479   -7.6301    0.0000 C   0  0  0  0  0  0  0  0  0  0  0  0
  1 11  2  0  0  0  0 
  6  4  1  0  0  0  0 
  5  6  2  0  0  0  0 
 12 13  2  0  0  0  0 
  5  1  1  0  0  0  0 
 13 14  1  0  0  0  0 
  6  7  1  0  0  0  0 
 14 15  2  0  0  0  0 
  1  2  1  0  0  0  0 
 15 16  1  0  0  0  0 
  7  8  2  0  0  0  0 
 16 17  2  0  0  0  0 
 17 12  1  0  0  0  0 
  3 12  1  0  0  0  0 
  2  3  2  0  0  0  0 
 15 18  1  0  0  0  0 
  8  9  1  0  0  0  0 
  2 19  1  0  0  0  0 
  3  4  1  0  0  0  0 
 10 20  1  0  0  0  0 
  9 10  2  0  0  0  0 
  8 21  1  0  0  0  0 
 10  5  1  0  0  0  0 
 18 22  1  0  0  0  0 
M  END
>  <MOLREGNO>
59677

>  <CHEMBLID>
CHEMBL40919

>  <SYNONYMS>
NSC-407294

>  <MAX_PHASE>
0

>  <MOLWEIGHT>
300.26

>  <ALOGP>
2.1

>  <PSA>
96.22

>  <HBA>
6

>  <HBD>
3

>  <RO5>
0

>  <RTB>
2

>  <RO3>
N

>  <ACD_MOST_APKA>
6.33

>  <ACD_MOST_BPKA>


>  <ACD_LOGP>
3.5

>  <ACD_LOGD>
2.18

>  <AROMATIC_RINGS>
2

>  <HEAVY_ATOMS>
22

>  <QED_WEIGHTED>
.79

>  <HBA_LIPINSKI>
6

>  <HBD_LIPINSKI>
3

>  <NUM_LIPINSKI_RO5_VIOLATIONS>
0

>  <MW_MONOISOTOPIC>
300.0634

>  <MOLECULAR_SPECIES>
ACID

>  <FULL_MOLFORMULA>
C16H12O6

$$$$

  SciTegic11201309402D

 22 25  0  0  1  0            999 V2000
    1.2768    0.3027    0.0000 C   0  0
    1.2768   -0.5223    0.0000 C   0  0
    1.9894   -0.9286    0.0000 C   0  0
    2.7030   -0.5223    0.0000 N   0  0
    3.4104   -0.9296    0.0000 C   0  0
    4.1255   -0.5205    0.0000 C   0  0
    4.1245    0.3044    0.0000 C   0  0
    1.9894    0.7213    0.0000 C   0  0  2  0  0  0
    2.7024    0.3036    0.0000 C   0  0  1  0  0  0
    3.4112    0.7126    0.0000 C   0  0  1  0  0  0
    1.9892    1.5440    0.0000 C   0  0
    2.7083    1.9506    0.0000 N   0  0
    3.4217    1.5379    0.0000 C   0  0  2  0  0  0
    4.1359    1.9471    0.0000 C   0  0
    4.1388    2.7748    0.0000 C   0  0
    3.4214    3.1915    0.0000 C   0  0
    2.7050    2.7765    0.0000 C   0  0
    1.9898    3.1907    0.0000 O   0  0
    4.2837    1.0310    0.0000 H   0  0
    4.2794    1.2087    0.0000 H   0  0
    1.8350   -0.1940    0.0000 H   0  0
    1.1214    1.2179    0.0000 H   0  0
 10 13  1  0
 12 11  1  0
 12 13  1  0
  8  1  1  0
  2  3  1  0
  4  5  1  0
  5  6  1  0
  6  7  1  0
 10  7  1  0
 12 17  1  0
 13 14  1  0
 14 15  1  0
 15 16  1  0
 16 17  1  0
  8  9  1  0
  3  4  1  0
  9  4  1  0
  1  2  1  0
 17 18  2  0
  8 11  1  0
  9 10  1  0
 13 19  1  1
 10 20  1  6
  9 21  1  6
  8 22  1  6
M  END
>  <MOLREGNO>
340570

>  <CHEMBLID>
CHEMBL204860

>  <SYNONYMS>
Matrine

>  <MAX_PHASE>
0

>  <MOLWEIGHT>
248.36

>  <ALOGP>
1.42

>  <PSA>
23.55

>  <HBA>
2

>  <HBD>
0

>  <RO5>
0

>  <RTB>
0

>  <RO3>
Y

>  <ACD_MOST_APKA>


>  <ACD_MOST_BPKA>
9.47

>  <ACD_LOGP>
2.92

>  <ACD_LOGD>
1.01

>  <AROMATIC_RINGS>
0

>  <HEAVY_ATOMS>
18

>  <QED_WEIGHTED>
.65

>  <HBA_LIPINSKI>
3

>  <HBD_LIPINSKI>
0

>  <NUM_LIPINSKI_RO5_VIOLATIONS>
0

>  <MW_MONOISOTOPIC>
248.1889

>  <MOLECULAR_SPECIES>
BASE

>  <FULL_MOLFORMULA>
C15H24N2O

$$$$

  SciTegic03251510122D

 23 26  0  0  1  0            999 V2000
    2.4809    1.2721    0.0000 O   0  5  0  0  0  0  0  0  0  0  0  0
   -3.7016   -3.5278    0.0000 O   0  0  0  0  0  0  0  0  0  0  0  0
    1.4657    0.6322    0.0000 N   0  3  0  0  0  0  0  0  0  0  0  0
   -2.4140   -1.5806    0.0000 N   0  0  0  0  0  0  0  0  0  0  0  0
    0.1437    0.0000    0.0000 C   0  0  2  0  0  0  0  0  0  0  0  0
   -1.0921    0.6322    0.0000 C   0  0  1  0  0  0  0  0  0  0  0  0
    0.1437   -1.5806    0.0000 C   0  0  2  0  0  0  0  0  0  0  0  0
   -2.4140    0.0000    0.0000 C   0  0  1  0  0  0  0  0  0  0  0  0
   -1.0921   -2.3278    0.0000 C   0  0  0  0  0  0  0  0  0  0  0  0
   -1.0921    2.1266    0.0000 C   0  0  0  0  0  0  0  0  0  0  0  0
    1.4657   -2.3278    0.0000 C   0  0  0  0  0  0  0  0  0  0  0  0
    1.4657    2.1266    0.0000 C   0  0  0  0  0  0  0  0  0  0  0  0
    2.7876    0.0000    0.0000 C   0  0  0  0  0  0  0  0  0  0  0  0
   -3.7072    0.6322    0.0000 C   0  0  0  0  0  0  0  0  0  0  0  0
   -3.7072   -2.3278    0.0000 C   0  0  0  0  0  0  0  0  0  0  0  0
    0.1437    2.8738    0.0000 C   0  0  0  0  0  0  0  0  0  0  0  0
    2.8164   -1.5806    0.0000 C   0  0  0  0  0  0  0  0  0  0  0  0
   -5.0292    0.0000    0.0000 C   0  0  0  0  0  0  0  0  0  0  0  0
   -5.0292   -1.5806    0.0000 C   0  0  0  0  0  0  0  0  0  0  0  0
   -2.4097    1.0000    0.0000 H   0  0  0  0  0  0  0  0  0  0  0  0
    0.1584   -2.5805    0.0000 H   0  0  0  0  0  0  0  0  0  0  0  0
   -1.9381    1.1654    0.0000 H   0  0  0  0  0  0  0  0  0  0  0  0
    0.1571    0.9999    0.0000 H   0  0  0  0  0  0  0  0  0  0  0  0
  1  3  1  0  0  0  0
 15  2  2  0  0  0  0
  5  3  1  0  0  0  0
 12  3  1  0  0  0  0
  3 13  1  0  0  0  0
  8  4  1  0  0  0  0
  9  4  1  0  0  0  0
  4 15  1  0  0  0  0
  6  5  1  0  0  0  0
  5  7  1  0  0  0  0
  8  6  1  0  0  0  0
  6 10  1  0  0  0  0
  7  9  1  0  0  0  0
 11  7  1  0  0  0  0
  8 14  1  0  0  0  0
 10 16  1  0  0  0  0
 17 11  1  0  0  0  0
 16 12  1  0  0  0  0
 13 17  1  0  0  0  0
 18 14  1  0  0  0  0
 15 19  1  0  0  0  0
 19 18  1  0  0  0  0
  8 20  1  1  0  0  0
  7 21  1  6  0  0  0
  6 22  1  6  0  0  0
  5 23  1  6  0  0  0
M  CHG  2   1  -1   3   1
M  END
>  <MOLREGNO>
340436

>  <CHEMBLID>
CHEMBL458337

>  <SYNONYMS>
Oxymatrine

>  <MAX_PHASE>
0

>  <MOLWEIGHT>
264.36

>  <ALOGP>
.61

>  <PSA>
37.38

>  <HBA>
2

>  <HBD>
0

>  <RO5>
0

>  <RTB>
0

>  <RO3>
Y

>  <ACD_MOST_APKA>


>  <ACD_MOST_BPKA>
9.84

>  <ACD_LOGP>
2.1

>  <ACD_LOGD>
-.25

>  <AROMATIC_RINGS>
0

>  <HEAVY_ATOMS>
19

>  <QED_WEIGHTED>
.48

>  <HBA_LIPINSKI>
4

>  <HBD_LIPINSKI>
0

>  <NUM_LIPINSKI_RO5_VIOLATIONS>
0

>  <MW_MONOISOTOPIC>
264.1838

>  <MOLECULAR_SPECIES>
BASE

>  <FULL_MOLFORMULA>
C15H24N2O2

$$$$

  SciTegic11201309402D

 23 26  0  0  1  0            999 V2000
   -3.5986   -5.6881    0.0000 C   0  0
   -3.5986   -6.5130    0.0000 C   0  0
   -2.8860   -6.9194    0.0000 C   0  0
   -2.1723   -6.5130    0.0000 N   0  3
   -1.4648   -6.9203    0.0000 C   0  0
   -0.7497   -6.5112    0.0000 C   0  0
   -0.7507   -5.6862    0.0000 C   0  0
   -2.8860   -5.2693    0.0000 C   0  0  2  0  0  0
   -2.1729   -5.6872    0.0000 C   0  0  1  0  0  0
   -1.4640   -5.2780    0.0000 C   0  0  1  0  0  0
   -2.8862   -4.4466    0.0000 C   0  0
   -2.1670   -4.0401    0.0000 N   0  0
   -1.4536   -4.4527    0.0000 C   0  0  2  0  0  0
   -0.7393   -4.0435    0.0000 C   0  0
   -0.7364   -3.2158    0.0000 C   0  0
   -1.4539   -2.7990    0.0000 C   0  0
   -2.1703   -3.2140    0.0000 C   0  0
   -2.8856   -2.7998    0.0000 O   0  0
   -2.1766   -7.3339    0.0000 O   0  5
   -0.5916   -4.9596    0.0000 H   0  0
   -0.5958   -4.7818    0.0000 H   0  0
   -3.0404   -6.1847    0.0000 H   0  0
   -3.7540   -4.7728    0.0000 H   0  0
 12 11  1  0
 12 13  1  0
  8  1  1  0
  2  3  1  0
  4  5  1  0
  5  6  1  0
  6  7  1  0
 10  7  1  0
 12 17  1  0
 13 14  1  0
 14 15  1  0
 15 16  2  0
 16 17  1  0
  8  9  1  0
  3  4  1  0
  9  4  1  0
  1  2  1  0
 17 18  2  0
  8 11  1  0
  4 19  1  0
  9 10  1  0
 10 13  1  0
 13 20  1  1
 10 21  1  6
  9 22  1  6
  8 23  1  6
M  CHG  2   4   1  19  -1
M  END
>  <MOLREGNO>
340761

>  <CHEMBLID>
CHEMBL380410

>  <SYNONYMS>
Oxysophocarpine

>  <MAX_PHASE>
0

>  <MOLWEIGHT>
262.35

>  <ALOGP>
.59

>  <PSA>
37.38

>  <HBA>
2

>  <HBD>
0

>  <RO5>
0

>  <RTB>
0

>  <RO3>
Y

>  <ACD_MOST_APKA>


>  <ACD_MOST_BPKA>
4.92

>  <ACD_LOGP>
-.78

>  <ACD_LOGD>
-.79

>  <AROMATIC_RINGS>
0

>  <HEAVY_ATOMS>
19

>  <QED_WEIGHTED>
.47

>  <HBA_LIPINSKI>
4

>  <HBD_LIPINSKI>
0

>  <NUM_LIPINSKI_RO5_VIOLATIONS>
0

>  <MW_MONOISOTOPIC>
262.1681

>  <MOLECULAR_SPECIES>
NEUTRAL

>  <FULL_MOLFORMULA>
C15H22N2O2

$$$$

  SciTegic11141214522D

 26 29  0  0  0  0            999 V2000
   -1.8413    0.0292    0.0000 C   0  0
   -2.5882   -0.3214    0.0000 C   0  0
   -2.6581   -1.1434    0.0000 C   0  0  2  0  0  0
   -3.4050   -1.4938    0.0000 O   0  0
   -1.9811   -1.6149    0.0000 C   0  0
   -1.2343   -1.2645    0.0000 C   0  0
   -0.5574   -1.7361    0.0000 C   0  0
    0.1895   -1.3856    0.0000 C   0  0
    0.2594   -0.5635    0.0000 C   0  0  2  0  0  0
   -0.4175   -0.0920    0.0000 C   0  0  1  0  0  0
   -1.1644   -0.4424    0.0000 C   0  0  1  0  0  0
   -0.3476    0.7301    0.0000 C   0  0
    0.3992    1.0805    0.0000 C   0  0
    1.0762    0.6089    0.0000 C   0  0  1  0  0  0
    1.0062   -0.2131    0.0000 C   0  0  1  0  0  0
    1.7665   -0.5336    0.0000 C   0  0
    2.3062    0.0903    0.0000 C   0  0
    1.8796    0.7965    0.0000 C   0  0  2  0  0  0
    1.2317    1.4192    0.0000 C   0  0
   -1.0944    0.3796    0.0000 C   0  0
    2.2002    1.5566    0.0000 C   0  0
    1.7021    2.2143    0.0000 C   0  0
    3.0187    1.6592    0.0000 O   0  0
    0.2594    0.2615    0.0000 H   0  0
    1.0062   -1.0381    0.0000 H   0  0
   -0.4175   -0.9170    0.0000 H   0  0
  1  2  1  0
  1 11  1  0
  2  3  1  0
  3  4  1  1
  3  5  1  0
  5  6  1  0
  6  7  2  0
 11  6  1  0
  7  8  1  0
  9  8  1  0
  9 10  1  0
 15  9  1  0
 11 10  1  0
 10 12  1  0
 11 20  1  1
 12 13  1  0
 13 14  1  0
 14 15  1  0
 14 18  1  0
 14 19  1  1
 15 16  1  0
 16 17  1  0
 17 18  1  0
 18 21  1  1
 21 22  1  0
 21 23  2  0
  9 24  1  1
 15 25  1  6
 10 26  1  6
M  END
>  <MOLREGNO>
419616

>  <CHEMBLID>
CHEMBL253363

>  <SYNONYMS>
Pregnenolone

>  <MAX_PHASE>
0

>  <MOLWEIGHT>
316.48

>  <ALOGP>
3.62

>  <PSA>
37.29

>  <HBA>
2

>  <HBD>
1

>  <RO5>
0

>  <RTB>
1

>  <RO3>
N

>  <ACD_MOST_APKA>


>  <ACD_MOST_BPKA>


>  <ACD_LOGP>
4.6

>  <ACD_LOGD>
4.6

>  <AROMATIC_RINGS>
0

>  <HEAVY_ATOMS>
23

>  <QED_WEIGHTED>
.75

>  <HBA_LIPINSKI>
2

>  <HBD_LIPINSKI>
1

>  <NUM_LIPINSKI_RO5_VIOLATIONS>
0

>  <MW_MONOISOTOPIC>
316.2402

>  <MOLECULAR_SPECIES>
NEUTRAL

>  <FULL_MOLFORMULA>
C21H32O2

$$$$

  SciTegic11301210262D

 33 36  0  0  1  0            999 V2000
    2.0792    0.5083    0.0000 C   0  0  1  0  0  0
   -0.5125   -0.9292    0.0000 C   0  0  1  0  0  0
   -0.5125   -1.9000    0.0000 C   0  0
    2.0542   -0.4667    0.0000 C   0  0  2  0  0  0
    0.3417   -0.4542    0.0000 C   0  0  2  0  0  0
    1.2000   -0.9167    0.0000 C   0  0  1  0  0  0
    3.1542    0.8458    0.0000 C   0  0  2  0  0  0
    0.3167   -2.4125    0.0000 C   0  0
    1.2167    1.0083    0.0000 C   0  0
    1.2000   -1.9167    0.0000 C   0  0
    0.3417    0.5208    0.0000 C   0  0
    3.1292   -0.7792    0.0000 C   0  0
   -1.3500   -0.4250    0.0000 C   0  0
    3.7375    0.0458    0.0000 C   0  0
   -3.2708   -0.8542    0.0000 C   0  0
    3.1792    2.0000    0.0000 C   0  0
   -1.3833   -2.3792    0.0000 C   0  0
   -2.1750    1.6125    0.0000 C   0  0
   -3.1208   -1.6542    0.0000 O   0  0
   -2.2333   -1.8667    0.0000 C   0  0  1  0  0  0
   -4.2208   -0.4542    0.0000 O   0  0
   -2.4458    2.6458    0.0000 O   0  0
    2.7417    2.7958    0.0000 O   0  0
   -2.2208   -0.9000    0.0000 C   0  0
   -2.5708   -0.1250    0.0000 C   0  0
   -2.9125    0.8333    0.0000 C   0  0
    2.0917    1.4708    0.0000 C   0  0
   -0.5375    0.2750    0.0000 C   0  0
   -1.2208    1.2833    0.0000 O   0  0
    4.0167    2.4625    0.0000 C   0  0
    2.0562   -1.4334    0.0000 H   0  0
   -0.5203    0.0528    0.0000 H   0  0
    2.1550   -1.4616    0.0000 H   0  0
  2  5  1  0
  3  2  1  0
  4  1  1  0
  5 11  1  0
  6  4  1  0
  7  1  1  0
  8 10  1  0
  9  1  1  0
 10  6  1  0
 11  9  1  0
 12  4  1  0
 13  2  1  0
 14  7  1  0
 15 19  1  0
  7 16  1  1
 17  3  1  0
 18 26  1  0
 20 19  1  1
 20 24  1  0
 21 15  2  0
 22 18  2  0
 23 16  2  0
 24 13  1  0
 25 15  1  0
 26 25  1  0
  1 27  1  1
  2 28  1  1
 29 18  1  0
 30 16  1  0
 12 14  1  0
  6  5  1  0
  8  3  2  0
 17 20  1  0
  6 31  1  1
  5 32  1  6
  4 33  1  6
M  END
>  <MOLREGNO>
1377643

>  <CHEMBLID>
CHEMBL2105373

>  <SYNONYMS>
PREGNENOLONE | FORMULA 405 | PREGNENOLONE SUCCINATE

>  <MAX_PHASE>
3

>  <MOLWEIGHT>
416.55

>  <ALOGP>
3.85

>  <PSA>
80.67

>  <HBA>
5

>  <HBD>
1

>  <RO5>
0

>  <RTB>
6

>  <RO3>
N

>  <ACD_MOST_APKA>


>  <ACD_MOST_BPKA>
4.08

>  <ACD_LOGP>
6

>  <ACD_LOGD>
6

>  <AROMATIC_RINGS>
0

>  <HEAVY_ATOMS>
30

>  <QED_WEIGHTED>
.53

>  <HBA_LIPINSKI>
5

>  <HBD_LIPINSKI>
1

>  <NUM_LIPINSKI_RO5_VIOLATIONS>
0

>  <MW_MONOISOTOPIC>
416.2563

>  <MOLECULAR_SPECIES>
NEUTRAL

>  <FULL_MOLFORMULA>
C25H36O5

$$$$

  SciTegic01311417502D

  8  7  0  0  0  0            999 V2000
    5.9333   -4.9667    0.0000 C   0  0
    4.0917   -4.6167    0.0000 C   0  0
    6.5458   -4.6167    0.0000 O   0  0
    3.4792   -4.9667    0.0000 O   0  0
    5.9333   -5.6792    0.0000 O   0  0
    4.0917   -3.9042    0.0000 O   0  0
    4.7083   -4.9667    0.0000 C   0  0
    5.3208   -4.6167    0.0000 C   0  0
  2  7  1  0
  3  1  1  0
  4  2  1  0
  5  1  2  0
  6  2  2  0
  7  8  1  0
  8  1  1  0
M  END
>  <MOLREGNO>
16740

>  <CHEMBLID>
CHEMBL576

>  <SYNONYMS>
E363 | SUCCINIC ACID

>  <MAX_PHASE>
0

>  <MOLWEIGHT>
118.09

>  <ALOGP>
-.36

>  <PSA>
74.59

>  <HBA>
4

>  <HBD>
2

>  <RO5>
0

>  <RTB>
3

>  <RO3>
N

>  <ACD_MOST_APKA>
4.25

>  <ACD_MOST_BPKA>


>  <ACD_LOGP>
-.93

>  <ACD_LOGD>
-5.47

>  <AROMATIC_RINGS>
0

>  <HEAVY_ATOMS>
8

>  <QED_WEIGHTED>
.53

>  <HBA_LIPINSKI>
4

>  <HBD_LIPINSKI>
2

>  <NUM_LIPINSKI_RO5_VIOLATIONS>
0

>  <MW_MONOISOTOPIC>
118.0266

>  <MOLECULAR_SPECIES>
ACID

>  <FULL_MOLFORMULA>
C4H6O4

$$$$

  Mrv0541 04051115152D          

 18 20  0  0  0  0            999 V2000
   -1.9195   -2.8446    0.0000 O   0  0  0  0  0  0  0  0  0  0  0  0
   -2.0057   -2.0241    0.0000 C   0  0  0  0  0  0  0  0  0  0  0  0
   -1.3383   -1.5392    0.0000 C   0  0  1  0  0  0  0  0  0  0  0  0
   -1.3383   -0.7142    0.0000 O   0  0  0  0  0  0  0  0  0  0  0  0
   -0.5537   -1.7941    0.0000 C   0  0  0  0  0  0  0  0  0  0  0  0
   -0.0687   -1.1267    0.0000 C   0  0  1  0  0  0  0  0  0  0  0  0
    0.7563   -1.1267    0.0000 O   0  0  0  0  0  0  0  0  0  0  0  0
   -0.5537   -0.4593    0.0000 C   0  0  2  0  0  0  0  0  0  0  0  0
   -0.2987    0.3254    0.0000 N   0  0  0  0  0  0  0  0  0  0  0  0
   -0.7836    0.9928    0.0000 C   0  0  0  0  0  0  0  0  0  0  0  0
   -0.2987    1.6602    0.0000 N   0  0  0  0  0  0  0  0  0  0  0  0
    0.4859    1.4053    0.0000 C   0  0  0  0  0  0  0  0  0  0  0  0
    1.2004    1.8178    0.0000 C   0  0  0  0  0  0  0  0  0  0  0  0
    1.2004    2.6428    0.0000 N   0  0  0  0  0  0  0  0  0  0  0  0
    1.9148    1.4053    0.0000 N   0  0  0  0  0  0  0  0  0  0  0  0
    1.9148    0.5803    0.0000 C   0  0  0  0  0  0  0  0  0  0  0  0
    1.2004    0.1678    0.0000 N   0  0  0  0  0  0  0  0  0  0  0  0
    0.4859    0.5803    0.0000 C   0  0  0  0  0  0  0  0  0  0  0  0
  2  1  1  0  0  0  0
  3  2  1  1  0  0  0
  3  4  1  0  0  0  0
  5  3  1  0  0  0  0
  8  4  1  0  0  0  0
  6  5  1  0  0  0  0
  6  7  1  6  0  0  0
  8  6  1  0  0  0  0
  8  9  1  1  0  0  0
 10  9  1  0  0  0  0
 18  9  1  0  0  0  0
 10 11  2  0  0  0  0
 12 11  1  0  0  0  0
 12 13  1  0  0  0  0
 18 12  2  0  0  0  0
 13 14  1  0  0  0  0
 13 15  2  0  0  0  0
 16 15  1  0  0  0  0
 16 17  2  0  0  0  0
 18 17  1  0  0  0  0
M  END
>  <MOLREGNO>
118239

>  <CHEMBLID>
CHEMBL305686

>  <SYNONYMS>
Cordycepin | 3'-Deoxyadenosine

>  <MAX_PHASE>
0

>  <MOLWEIGHT>
251.24

>  <ALOGP>
-1.31

>  <PSA>
119.3

>  <HBA>
7

>  <HBD>
3

>  <RO5>
0

>  <RTB>
2

>  <RO3>
N

>  <ACD_MOST_APKA>
13.64

>  <ACD_MOST_BPKA>
3.82

>  <ACD_LOGP>
-1.36

>  <ACD_LOGD>
-1.36

>  <AROMATIC_RINGS>
2

>  <HEAVY_ATOMS>
18

>  <QED_WEIGHTED>
.61

>  <HBA_LIPINSKI>
8

>  <HBD_LIPINSKI>
4

>  <NUM_LIPINSKI_RO5_VIOLATIONS>
0

>  <MW_MONOISOTOPIC>
251.1018

>  <MOLECULAR_SPECIES>
NEUTRAL

>  <FULL_MOLFORMULA>
C10H13N5O3

$$$$

  CDK    9/16/09,9:20

 31 35  0  0  0  0  0  0  0  0999 V2000
    5.2057  -20.9371    0.0000 C   0  0  0  0  0  0  0  0  0  0  0  0
    5.2037  -19.2854    0.0000 C   0  0  0  0  0  0  0  0  0  0  0  0
    5.9212  -19.6938    0.0000 C   0  0  0  0  0  0  0  0  0  0  0  0
    5.9203  -20.5220    0.0000 C   0  0  0  0  0  0  0  0  0  0  0  0
    6.6332  -20.9345    0.0000 C   0  0  0  0  0  0  0  0  0  0  0  0
    6.6350  -19.2782    0.0000 C   0  0  0  0  0  0  0  0  0  0  0  0
    7.3524  -19.6953    0.0000 C   0  0  0  0  0  0  0  0  0  0  0  0
    7.3530  -20.5209    0.0000 C   0  0  0  0  0  0  0  0  0  0  0  0
    8.1384  -20.7755    0.0000 C   0  0  0  0  0  0  0  0  0  0  0  0
    8.6232  -20.1072    0.0000 O   0  0  0  0  0  0  0  0  0  0  0  0
    8.1374  -19.4397    0.0000 C   0  0  0  0  0  0  0  0  0  0  0  0
    4.4935  -20.5245    0.0000 C   0  0  0  0  0  0  0  0  0  0  0  0
    4.4903  -19.7008    0.0000 C   0  0  0  0  0  0  0  0  0  0  0  0
    3.7058  -19.4494    0.0000 O   0  0  0  0  0  0  0  0  0  0  0  0
    3.2243  -20.1176    0.0000 C   0  0  0  0  0  0  0  0  0  0  0  0
    3.7111  -20.7821    0.0000 O   0  0  0  0  0  0  0  0  0  0  0  0
    8.3936  -21.5592    0.0000 O   0  0  0  0  0  0  0  0  0  0  0  0
    6.6347  -18.4540    0.0000 O   0  0  0  0  0  0  0  0  0  0  0  0
    6.6319  -21.7587    0.0000 C   0  0  0  0  0  0  0  0  0  0  0  0
    5.9147  -22.1662    0.0000 C   0  0  0  0  0  0  0  0  0  0  0  0
    5.9132  -22.9896    0.0000 C   0  0  0  0  0  0  0  0  0  0  0  0
    6.6268  -23.4036    0.0000 C   0  0  0  0  0  0  0  0  0  0  0  0
    7.3435  -22.9882    0.0000 C   0  0  0  0  0  0  0  0  0  0  0  0
    7.3417  -22.1661    0.0000 C   0  0  0  0  0  0  0  0  0  0  0  0
    5.1986  -23.4003    0.0000 O   0  0  0  0  0  0  0  0  0  0  0  0
    4.4856  -22.9868    0.0000 C   0  0  0  0  0  0  0  0  0  0  0  0
    6.6266  -24.2277    0.0000 O   0  0  0  0  0  0  0  0  0  0  0  0
    8.0581  -23.3988    0.0000 O   0  0  0  0  0  0  0  0  0  0  0  0
    8.7711  -22.9853    0.0000 C   0  0  0  0  0  0  0  0  0  0  0  0
    7.3443  -18.8690    0.0000 H   0  0  0  0  0  0  0  0  0  0  0  0
    7.3443  -21.3416    0.0000 H   0  0  0  0  0  0  0  0  0  0  0  0
  7  6  1  0  0  0  0 
 13 14  1  0  0  0  0 
 14 15  1  0  0  0  0 
 15 16  1  0  0  0  0 
 16 12  1  0  0  0  0 
  7  8  1  0  0  0  0 
  9 17  2  0  0  0  0 
  2 13  1  0  0  0  0 
  6 18  1  1  0  0  0 
  3  4  1  0  0  0  0 
  5 19  1  6  0  0  0 
 12  1  1  0  0  0  0 
 19 20  2  0  0  0  0 
  1  4  2  0  0  0  0 
 20 21  1  0  0  0  0 
 21 22  2  0  0  0  0 
  8  9  1  0  0  0  0 
 22 23  1  0  0  0  0 
  9 10  1  0  0  0  0 
 23 24  2  0  0  0  0 
 24 19  1  0  0  0  0 
 10 11  1  0  0  0  0 
 21 25  1  0  0  0  0 
 11  7  1  0  0  0  0 
 25 26  1  0  0  0  0 
 12 13  2  0  0  0  0 
 22 27  1  0  0  0  0 
  3  2  2  0  0  0  0 
 23 28  1  0  0  0  0 
  3  6  1  0  0  0  0 
 28 29  1  0  0  0  0 
  4  5  1  0  0  0  0 
  7 30  1  6  0  0  0 
  5  8  1  0  0  0  0 
  8 31  1  1  0  0  0 
M  END
>  <MOLREGNO>
41730

>  <CHEMBLID>
CHEMBL31929

>  <SYNONYMS>
4'-Demethylepipodophyllotoxin | 4'-Demethyl-Epipodophyllotoxin

>  <MAX_PHASE>
0

>  <MOLWEIGHT>
400.38

>  <ALOGP>
1.89

>  <PSA>
103.68

>  <HBA>
8

>  <HBD>
2

>  <RO5>
0

>  <RTB>
3

>  <RO3>
N

>  <ACD_MOST_APKA>
9.94

>  <ACD_MOST_BPKA>


>  <ACD_LOGP>
2.19

>  <ACD_LOGD>
2.19

>  <AROMATIC_RINGS>
2

>  <HEAVY_ATOMS>
29

>  <QED_WEIGHTED>
.75

>  <HBA_LIPINSKI>
8

>  <HBD_LIPINSKI>
2

>  <NUM_LIPINSKI_RO5_VIOLATIONS>
0

>  <MW_MONOISOTOPIC>
400.1158

>  <MOLECULAR_SPECIES>
NEUTRAL

>  <FULL_MOLFORMULA>
C21H20O8

$$$$

  CDK    9/16/09,9:20

 13 13  0  0  0  0  0  0  0  0999 V2000
   12.5607  -24.1957    0.0000 C   0  0  0  0  0  0  0  0  0  0  0  0
   12.5595  -25.0225    0.0000 C   0  0  0  0  0  0  0  0  0  0  0  0
   13.2739  -25.4351    0.0000 C   0  0  0  0  0  0  0  0  0  0  0  0
   13.9898  -25.0221    0.0000 C   0  0  0  0  0  0  0  0  0  0  0  0
   13.9869  -24.1920    0.0000 C   0  0  0  0  0  0  0  0  0  0  0  0
   13.2721  -23.7832    0.0000 C   0  0  0  0  0  0  0  0  0  0  0  0
   13.2691  -22.9550    0.0000 C   0  0  0  0  0  0  0  0  0  0  0  0
   14.7044  -25.4331    0.0000 O   0  0  0  0  0  0  0  0  0  0  0  0
   13.2737  -26.2595    0.0000 O   0  0  0  0  0  0  0  0  0  0  0  0
   15.4177  -25.0198    0.0000 C   0  0  0  0  0  0  0  0  0  0  0  0
   13.9817  -22.5403    0.0000 C   0  0  0  0  0  0  0  0  0  0  0  0
   14.6984  -22.9477    0.0000 O   0  0  0  0  0  0  0  0  0  0  0  0
   13.9801  -21.7136    0.0000 O   0  0  0  0  0  0  0  0  0  0  0  0
  1  2  2  0  0  0  0 
  6  7  1  0  0  0  0 
  3  4  2  0  0  0  0 
  4  8  1  0  0  0  0 
  3  9  1  0  0  0  0 
  4  5  1  0  0  0  0 
  8 10  1  0  0  0  0 
  2  3  1  0  0  0  0 
  7 11  1  0  0  0  0 
  5  6  2  0  0  0  0 
  6  1  1  0  0  0  0 
 11 12  1  0  0  0  0 
 11 13  2  0  0  0  0 
M  END
>  <MOLREGNO>
445959

>  <CHEMBLID>
CHEMBL1562

>  <SYNONYMS>
Homovanillic Acid

>  <MAX_PHASE>
0

>  <MOLWEIGHT>
182.17

>  <ALOGP>
1.24

>  <PSA>
66.75

>  <HBA>
4

>  <HBD>
2

>  <RO5>
0

>  <RTB>
3

>  <RO3>
N

>  <ACD_MOST_APKA>
4.39

>  <ACD_MOST_BPKA>


>  <ACD_LOGP>
.65

>  <ACD_LOGD>
-2.33

>  <AROMATIC_RINGS>
1

>  <HEAVY_ATOMS>
13

>  <QED_WEIGHTED>
.74

>  <HBA_LIPINSKI>
4

>  <HBD_LIPINSKI>
2

>  <NUM_LIPINSKI_RO5_VIOLATIONS>
0

>  <MW_MONOISOTOPIC>
182.0579

>  <MOLECULAR_SPECIES>
ACID

>  <FULL_MOLFORMULA>
C9H10O4

$$$$

  CDK    9/16/09,9:42

 43 46  0  0  0  0  0  0  0  0999 V2000
   -2.0062   -5.4238    0.0000 C   0  0  0  0  0  0  0  0  0  0  0  0
   -1.1931   -5.2845    0.0000 N   0  0  0  0  0  0  0  0  0  0  0  0
   -1.0738   -4.4677    0.0000 C   0  0  0  0  0  0  0  0  0  0  0  0
   -1.8141   -4.1028    0.0000 C   0  0  0  0  0  0  0  0  0  0  0  0
   -2.3899   -4.6934    0.0000 C   0  0  0  0  0  0  0  0  0  0  0  0
   -3.2063   -4.5745    0.0000 C   0  0  0  0  0  0  0  0  0  0  0  0
   -1.8576   -3.2790    0.0000 C   0  0  0  0  0  0  0  0  0  0  0  0
   -1.1660   -2.8294    0.0000 C   0  0  0  0  0  0  0  0  0  0  0  0
   -1.2095   -2.0056    0.0000 C   0  0  0  0  0  0  0  0  0  0  0  0
   -0.5179   -1.5559    0.0000 O   0  0  0  0  0  0  0  0  0  0  0  0
   -1.9448   -1.6314    0.0000 O   0  0  0  0  0  0  0  0  0  0  0  0
   -0.4030   -3.9873    0.0000 C   0  0  0  0  0  0  0  0  0  0  0  0
    0.3483   -4.3281    0.0000 C   0  0  0  0  0  0  0  0  0  0  0  0
    0.5094   -5.1339    0.0000 N   0  0  0  0  0  0  0  0  0  0  0  0
    1.3273   -5.2258    0.0000 C   0  0  0  0  0  0  0  0  0  0  0  0
    1.6700   -4.4744    0.0000 C   0  0  0  0  0  0  0  0  0  0  0  0
    1.0611   -3.9181    0.0000 C   0  0  0  0  0  0  0  0  0  0  0  0
    2.4781   -4.3084    0.0000 C   0  0  0  0  0  0  0  0  0  0  0  0
    1.0683   -3.0931    0.0000 C   0  0  0  0  0  0  0  0  0  0  0  0
    1.7864   -2.6869    0.0000 C   0  0  0  0  0  0  0  0  0  0  0  0
    1.7935   -1.8619    0.0000 C   0  0  0  0  0  0  0  0  0  0  0  0
    2.5116   -1.4557    0.0000 O   0  0  0  0  0  0  0  0  0  0  0  0
    1.0827   -1.4432    0.0000 O   0  0  0  0  0  0  0  0  0  0  0  0
   -2.3724   -6.1636    0.0000 C   0  0  0  0  0  0  0  0  0  0  0  0
   -2.1063   -6.9445    0.0000 C   0  0  0  0  0  0  0  0  0  0  0  0
   -2.5832   -7.6213    0.0000 C   0  0  0  0  0  0  0  0  0  0  0  0
   -2.0885   -8.2817    0.0000 C   0  0  0  0  0  0  0  0  0  0  0  0
   -1.3077   -8.0155    0.0000 C   0  0  0  0  0  0  0  0  0  0  0  0
   -1.3195   -7.1907    0.0000 N   0  0  0  0  0  0  0  0  0  0  0  0
   -2.3323   -9.0699    0.0000 C   0  0  0  0  0  0  0  0  0  0  0  0
   -0.6334   -8.4908    0.0000 O   0  0  0  0  0  0  0  0  0  0  0  0
   -3.4054   -7.5544    0.0000 C   0  0  0  0  0  0  0  0  0  0  0  0
   -3.7587   -6.8090    0.0000 C   0  0  0  0  0  0  0  0  0  0  0  0
    1.6867   -5.9684    0.0000 C   0  0  0  0  0  0  0  0  0  0  0  0
    1.4559   -6.7605    0.0000 C   0  0  0  0  0  0  0  0  0  0  0  0
    0.6836   -7.0388    0.0000 N   0  0  0  0  0  0  0  0  0  0  0  0
    0.7090   -7.8633    0.0000 C   0  0  0  0  0  0  0  0  0  0  0  0
    1.5011   -8.0941    0.0000 C   0  0  0  0  0  0  0  0  0  0  0  0
    1.9652   -7.4120    0.0000 C   0  0  0  0  0  0  0  0  0  0  0  0
    2.7898   -7.3848    0.0000 C   0  0  0  0  0  0  0  0  0  0  0  0
    1.7801   -8.8704    0.0000 C   0  0  0  0  0  0  0  0  0  0  0  0
    1.2472   -9.5003    0.0000 C   0  0  0  0  0  0  0  0  0  0  0  0
    0.0568   -8.3685    0.0000 O   0  0  0  0  0  0  0  0  0  0  0  0
 20 21  1  0  0  0  0 
  5  1  2  0  0  0  0 
 21 22  2  0  0  0  0 
  9 11  1  0  0  0  0 
 21 23  1  0  0  0  0 
  1  2  1  0  0  0  0 
  1 24  1  0  0  0  0 
  3 12  1  0  0  0  0 
 24 25  2  0  0  0  0 
 25 26  1  0  0  0  0 
  5  6  1  0  0  0  0 
 12 13  1  0  0  0  0 
 13 14  1  0  0  0  0 
 26 27  2  0  0  0  0 
 27 28  1  0  0  0  0 
 28 29  1  0  0  0  0 
 29 25  1  0  0  0  0 
  4  7  1  0  0  0  0 
 27 30  1  0  0  0  0 
  2  3  1  0  0  0  0 
 28 31  2  0  0  0  0 
  7  8  1  0  0  0  0 
 26 32  1  0  0  0  0 
 14 15  1  0  0  0  0 
 32 33  2  0  0  0  0 
 15 16  2  0  0  0  0 
 15 34  1  0  0  0  0 
 16 17  1  0  0  0  0 
 34 35  2  0  0  0  0 
 35 36  1  0  0  0  0 
 17 13  2  0  0  0  0 
  3  4  2  0  0  0  0 
 16 18  1  0  0  0  0 
  8  9  1  0  0  0  0 
 36 37  1  0  0  0  0 
 37 38  1  0  0  0  0 
 38 39  2  0  0  0  0 
 39 35  1  0  0  0  0 
 17 19  1  0  0  0  0 
 39 40  1  0  0  0  0 
  4  5  1  0  0  0  0 
 38 41  1  0  0  0  0 
 19 20  1  0  0  0  0 
 41 42  2  0  0  0  0 
  9 10  2  0  0  0  0 
 37 43  2  0  0  0  0 
M  END
>  <MOLREGNO>
485660

>  <CHEMBLID>
CHEMBL501680

>  <SYNONYMS>
Bilirubin

>  <MAX_PHASE>
0

>  <MOLWEIGHT>
584.66

>  <ALOGP>
5.06

>  <PSA>
164.38

>  <HBA>
6

>  <HBD>
6

>  <RO5>
3

>  <RTB>
12

>  <RO3>
N

>  <ACD_MOST_APKA>
4.62

>  <ACD_MOST_BPKA>
2.31

>  <ACD_LOGP>
1.43

>  <ACD_LOGD>
-3.24

>  <AROMATIC_RINGS>
2

>  <HEAVY_ATOMS>
43

>  <QED_WEIGHTED>
.2

>  <HBA_LIPINSKI>
10

>  <HBD_LIPINSKI>
6

>  <NUM_LIPINSKI_RO5_VIOLATIONS>
2

>  <MW_MONOISOTOPIC>
584.2635

>  <MOLECULAR_SPECIES>
ACID

>  <FULL_MOLFORMULA>
C33H36N4O6

$$$$

  Mrv0541 04051115152D          

 12 12  0  0  0  0            999 V2000
   -0.5209    1.3345    0.0000 C   0  0  0  0  0  0  0  0  0  0  0  0
    0.0311    0.7214    0.0000 C   0  0  1  0  0  0  0  0  0  0  0  0
    0.6986    0.2365    0.0000 C   0  0  2  0  0  0  0  0  0  0  0  0
    0.4436   -0.5482    0.0000 C   0  0  1  0  0  0  0  0  0  0  0  0
   -0.3814   -0.5482    0.0000 C   0  0  1  0  0  0  0  0  0  0  0  0
   -0.8663   -1.2156    0.0000 C   0  0  0  0  0  0  0  0  0  0  0  0
   -1.3279    1.1630    0.0000 O   0  0  0  0  0  0  0  0  0  0  0  0
    0.5832    1.3345    0.0000 O   0  0  0  0  0  0  0  0  0  0  0  0
    1.4832    0.4914    0.0000 O   0  0  0  0  0  0  0  0  0  0  0  0
    0.9285   -1.2156    0.0000 O   0  0  0  0  0  0  0  0  0  0  0  0
   -0.6363    0.2365    0.0000 O   0  0  0  0  0  0  0  0  0  0  0  0
   -0.5307   -1.9693    0.0000 O   0  0  0  0  0  0  0  0  0  0  0  0
  2  1  1  6  0  0  0
  1  7  1  0  0  0  0
  2  3  1  0  0  0  0
  2  8  1  1  0  0  0
  2 11  1  0  0  0  0
  3  4  1  0  0  0  0
  3  9  1  1  0  0  0
  4  5  1  0  0  0  0
  4 10  1  6  0  0  0
  5  6  1  1  0  0  0
  5 11  1  0  0  0  0
  6 12  1  0  0  0  0
M  END
>  <MOLREGNO>
604844

>  <CHEMBLID>
CHEMBL604608

>  <SYNONYMS>
LEVULOSE | FRUCTOSE

>  <MAX_PHASE>
2

>  <MOLWEIGHT>
180.16

>  <ALOGP>
-2.56

>  <PSA>
110.38

>  <HBA>
6

>  <HBD>
5

>  <RO5>
0

>  <RTB>
2

>  <RO3>
N

>  <ACD_MOST_APKA>
11.42

>  <ACD_MOST_BPKA>


>  <ACD_LOGP>
-1.98

>  <ACD_LOGD>
-1.98

>  <AROMATIC_RINGS>
0

>  <HEAVY_ATOMS>
12

>  <QED_WEIGHTED>
.32

>  <HBA_LIPINSKI>
6

>  <HBD_LIPINSKI>
5

>  <NUM_LIPINSKI_RO5_VIOLATIONS>
0

>  <MW_MONOISOTOPIC>
180.0634

>  <MOLECULAR_SPECIES>
NEUTRAL

>  <FULL_MOLFORMULA>
C6H12O6

$$$$

  SciTegic12231509382D

 12 12  0  0  0  0            999 V2000
    6.1650   -6.4617    0.0000 C   0  0
    6.5736   -5.7540    0.0000 N   0  0
    6.1650   -5.0463    0.0000 C   0  0
    7.3908   -5.7540    0.0000 C   0  0
    7.7994   -6.4617    0.0000 C   0  0
    8.6166   -6.4617    0.0000 C   0  0
    9.0252   -5.7540    0.0000 C   0  0
    9.8424   -5.7540    0.0000 C   0  0
   10.2510   -6.4617    0.0000 C   0  0
   11.0682   -6.4617    0.0000 O   0  0
    9.8424   -7.1695    0.0000 C   0  0
    9.0252   -7.1695    0.0000 C   0  0
  1  2  1  0
  2  3  1  0
  2  4  1  0
  4  5  1  0
  5  6  1  0
  6  7  2  0
  7  8  1  0
  8  9  2  0
  9 10  1  0
  9 11  1  0
 11 12  2  0
  6 12  1  0
M  END
>  <MOLREGNO>
443712

>  <CHEMBLID>
CHEMBL505789

>  <SYNONYMS>
Hordenine | Hordenine Sulfate

>  <MAX_PHASE>
0

>  <MOLWEIGHT>
165.23

>  <ALOGP>
1.98

>  <PSA>
23.47

>  <HBA>
2

>  <HBD>
1

>  <RO5>
0

>  <RTB>
3

>  <RO3>
Y

>  <ACD_MOST_APKA>


>  <ACD_MOST_BPKA>
5.38

>  <ACD_LOGP>
3.03

>  <ACD_LOGD>
3.03

>  <AROMATIC_RINGS>
1

>  <HEAVY_ATOMS>
12

>  <QED_WEIGHTED>
.74

>  <HBA_LIPINSKI>
2

>  <HBD_LIPINSKI>
1

>  <NUM_LIPINSKI_RO5_VIOLATIONS>
0

>  <MW_MONOISOTOPIC>
165.1154

>  <MOLECULAR_SPECIES>
NEUTRAL

>  <FULL_MOLFORMULA>
C10H15NO

$$$$

  SciTegic01111613442D

 30 32  0  0  0  0            999 V2000
    0.0000    0.7486    0.0000 C   0  0
    0.0000   -0.7486    0.0000 C   0  0  2  0  0  0
    1.2964   -1.4973    0.0000 C   0  0  1  0  0  0
   -1.2447   -7.4974    0.0000 C   0  0
    2.5911   -3.7520    0.0000 C   0  0
   -1.2964    1.4973    0.0000 C   0  0
    1.2964    1.4973    0.0000 C   0  0
    1.2933   -2.9981    0.0000 O   0  0
   -1.2964   -1.4973    0.0000 C   0  0  1  0  0  0
   -1.2596   -5.9975    0.0000 O   0  0
   -2.6111    0.7486    0.0000 C   0  0
   -2.5363   -8.2603    0.0000 C   0  0
   -1.2845   -2.9981    0.0000 C   0  0
    2.5929   -0.7486    0.0000 C   0  0
   -2.6111   -0.7486    0.0000 C   0  0  2  0  0  0
   -2.5660   -5.2603    0.0000 C   0  0  1  0  0  0
    3.4583   -3.2541    0.0000 O   0  0
   -3.8427   -7.5232    0.0000 C   0  0  1  0  0  0
   -0.1996   -8.0871    0.0000 O   0  0
    2.5929    0.7486    0.0000 C   0  0  1  0  0  0
   -3.8575   -6.0232    0.0000 C   0  0
    2.5880   -5.2529    0.0000 C   0  0  2  0  0  0
   -2.5778   -3.7595    0.0000 C   0  0
   -4.8759   -8.1334    0.0000 O   0  0
   -3.6486   -1.3517    0.0000 C   0  0
    3.6321    1.3486    0.0000 C   0  0
    3.8857   -6.0068    0.0000 C   0  0
    1.7208   -5.7508    0.0000 C   0  0
    3.8837   -7.0068    0.0000 C   0  0
    0.0000   -1.7486    0.0000 H   0  0
  2  1  1  0
  3  2  1  0
  4 10  1  0
  5  8  1  0
  6  1  1  0
  7  1  2  0
  3  8  1  6
  9  2  1  0
 10 16  1  0
 11  6  2  0
 12 18  1  0
  9 13  1  1
 14 20  1  0
 15 11  1  0
 16 23  1  1
 17  5  2  0
 18 21  1  0
 19  4  2  0
 20  7  1  0
 21 16  1  0
 22  5  1  0
 23 13  1  0
 18 24  1  6
 15 25  1  1
 20 26  1  6
 27 22  1  0
 22 28  1  6
 29 27  1  0
  2 30  1  1
  3 14  1  0
  9 15  1  0
  4 12  1  0
M  END
>  <MOLREGNO>
9495

>  <CHEMBLID>
CHEMBL503

>  <SYNONYMS>
LOVASTATIN | MK-803 | MEVACOR | ALTOPREV | MEVINOLIN

>  <MAX_PHASE>
4

>  <MOLWEIGHT>
404.54

>  <ALOGP>
4.22

>  <PSA>
72.83

>  <HBA>
5

>  <HBD>
1

>  <RO5>
0

>  <RTB>
7

>  <RO3>
N

>  <ACD_MOST_APKA>
13.49

>  <ACD_MOST_BPKA>


>  <ACD_LOGP>
4.31

>  <ACD_LOGD>
4.31

>  <AROMATIC_RINGS>
0

>  <HEAVY_ATOMS>
29

>  <QED_WEIGHTED>
.64

>  <HBA_LIPINSKI>
5

>  <HBD_LIPINSKI>
1

>  <NUM_LIPINSKI_RO5_VIOLATIONS>
0

>  <MW_MONOISOTOPIC>
404.2563

>  <MOLECULAR_SPECIES>
NEUTRAL

>  <FULL_MOLFORMULA>
C24H36O5

$$$$

  SciTegic12231509382D

 12 12  0  0  0  0            999 V2000
    0.8949   -0.5095    0.0000 C   0  0  2  0  0  0
    1.6094   -0.9220    0.0000 O   0  0
    0.1804   -0.9220    0.0000 C   0  0  2  0  0  0
    0.1804   -1.7470    0.0000 N   0  0
   -0.5340   -0.5095    0.0000 C   0  0  1  0  0  0
   -1.2485   -0.9220    0.0000 O   0  0
   -0.5340    0.3155    0.0000 C   0  0  2  0  0  0
   -1.2485    0.7280    0.0000 O   0  0
    0.1804    0.7280    0.0000 C   0  0  2  0  0  0
    0.8949    0.3155    0.0000 O   0  0
    0.1804    1.5530    0.0000 C   0  0
   -0.5340    1.9655    0.0000 O   0  0
  1  2  1  6
  1  3  1  0
  1 10  1  0
  3  4  1  6
  3  5  1  0
  5  6  1  1
  5  7  1  0
  7  8  1  6
  7  9  1  0
  9 10  1  0
  9 11  1  1
 11 12  1  0
M  END
>  <MOLREGNO>
610123

>  <CHEMBLID>
CHEMBL606759

>  <SYNONYMS>
GLUCOSAMINE HYDROCHLORIDE | GLUCOSAMINE

>  <MAX_PHASE>
3

>  <MOLWEIGHT>
179.17

>  <ALOGP>
-2.8

>  <PSA>
116.17

>  <HBA>
6

>  <HBD>
5

>  <RO5>
0

>  <RTB>
1

>  <RO3>
N

>  <ACD_MOST_APKA>


>  <ACD_MOST_BPKA>


>  <ACD_LOGP>
2.4

>  <ACD_LOGD>
2.4

>  <AROMATIC_RINGS>
0

>  <HEAVY_ATOMS>
12

>  <QED_WEIGHTED>
.3

>  <HBA_LIPINSKI>
6

>  <HBD_LIPINSKI>
6

>  <NUM_LIPINSKI_RO5_VIOLATIONS>
1

>  <MW_MONOISOTOPIC>
179.0794

>  <MOLECULAR_SPECIES>


>  <FULL_MOLFORMULA>
C6H13NO5

$$$$

  Mrv0541 04051115152D          

 63 63  0  0  0  0            999 V2000
    6.3093  -10.4594    0.0000 C   0  0  0  0  0  0  0  0  0  0  0  0
    6.3093  -11.2844    0.0000 C   0  0  0  0  0  0  0  0  0  0  0  0
    5.5949  -11.6969    0.0000 C   0  0  0  0  0  0  0  0  0  0  0  0
    4.8804  -11.2844    0.0000 C   0  0  0  0  0  0  0  0  0  0  0  0
    4.8804  -10.4594    0.0000 C   0  0  0  0  0  0  0  0  0  0  0  0
    5.5949  -10.0469    0.0000 C   0  0  0  0  0  0  0  0  0  0  0  0
    7.0238  -10.0469    0.0000 C   0  0  0  0  0  0  0  0  0  0  0  0
    4.8804  -12.9344    0.0000 C   0  0  0  0  0  0  0  0  0  0  0  0
    3.4515  -11.2844    0.0000 C   0  0  0  0  0  0  0  0  0  0  0  0
    5.5949   -9.2219    0.0000 C   0  0  0  0  0  0  0  0  0  0  0  0
    4.8804   -8.8094    0.0000 C   0  0  0  0  0  0  0  0  0  0  0  0
    4.8804   -7.9844    0.0000 C   0  0  0  0  0  0  0  0  0  0  0  0
    5.5949   -7.5719    0.0000 C   0  0  0  0  0  0  0  0  0  0  0  0
    4.1659   -7.5719    0.0000 C   0  0  0  0  0  0  0  0  0  0  0  0
    4.1659   -6.7469    0.0000 C   0  0  0  0  0  0  0  0  0  0  0  0
    3.4515   -6.3344    0.0000 C   0  0  0  0  0  0  0  0  0  0  0  0
    3.4515   -5.5094    0.0000 C   0  0  0  0  0  0  0  0  0  0  0  0
    4.1659   -5.0969    0.0000 C   0  0  0  0  0  0  0  0  0  0  0  0
    2.7370   -5.0969    0.0000 C   0  0  0  0  0  0  0  0  0  0  0  0
    2.7370   -4.2719    0.0000 C   0  0  0  0  0  0  0  0  0  0  0  0
    2.0225   -3.8594    0.0000 C   0  0  0  0  0  0  0  0  0  0  0  0
    2.0225   -3.0344    0.0000 C   0  0  0  0  0  0  0  0  0  0  0  0
    2.7370   -2.6219    0.0000 C   0  0  0  0  0  0  0  0  0  0  0  0
    1.3080   -2.6219    0.0000 C   0  0  0  0  0  0  0  0  0  0  0  0
    1.3080   -1.7969    0.0000 C   0  0  0  0  0  0  0  0  0  0  0  0
    0.5936   -1.3844    0.0000 C   0  0  0  0  0  0  0  0  0  0  0  0
    0.5936   -0.5594    0.0000 C   0  0  0  0  0  0  0  0  0  0  0  0
    1.3080   -0.1469    0.0000 C   0  0  0  0  0  0  0  0  0  0  0  0
   -0.1209   -0.1469    0.0000 C   0  0  0  0  0  0  0  0  0  0  0  0
   -0.1209    0.6781    0.0000 C   0  0  0  0  0  0  0  0  0  0  0  0
   -0.8354    1.0906    0.0000 C   0  0  0  0  0  0  0  0  0  0  0  0
   -0.8354    1.9156    0.0000 C   0  0  0  0  0  0  0  0  0  0  0  0
   -0.1209    2.3281    0.0000 C   0  0  0  0  0  0  0  0  0  0  0  0
   -1.5498    2.3281    0.0000 C   0  0  0  0  0  0  0  0  0  0  0  0
   -1.5498    3.1531    0.0000 C   0  0  0  0  0  0  0  0  0  0  0  0
   -2.2643    3.5656    0.0000 C   0  0  0  0  0  0  0  0  0  0  0  0
   -2.2643    4.3906    0.0000 C   0  0  0  0  0  0  0  0  0  0  0  0
   -1.5498    4.8031    0.0000 C   0  0  0  0  0  0  0  0  0  0  0  0
   -2.9788    4.8031    0.0000 C   0  0  0  0  0  0  0  0  0  0  0  0
   -2.9788    5.6281    0.0000 C   0  0  0  0  0  0  0  0  0  0  0  0
   -3.6933    6.0406    0.0000 C   0  0  0  0  0  0  0  0  0  0  0  0
   -3.6933    6.8656    0.0000 C   0  0  0  0  0  0  0  0  0  0  0  0
   -2.9788    7.2781    0.0000 C   0  0  0  0  0  0  0  0  0  0  0  0
   -4.4077    7.2781    0.0000 C   0  0  0  0  0  0  0  0  0  0  0  0
   -4.4077    8.1031    0.0000 C   0  0  0  0  0  0  0  0  0  0  0  0
   -5.1222    8.5156    0.0000 C   0  0  0  0  0  0  0  0  0  0  0  0
   -5.1222    9.3406    0.0000 C   0  0  0  0  0  0  0  0  0  0  0  0
   -4.4077    9.7531    0.0000 C   0  0  0  0  0  0  0  0  0  0  0  0
   -5.8367    9.7531    0.0000 C   0  0  0  0  0  0  0  0  0  0  0  0
   -5.8367   10.5781    0.0000 C   0  0  0  0  0  0  0  0  0  0  0  0
   -6.5511   10.9906    0.0000 C   0  0  0  0  0  0  0  0  0  0  0  0
   -6.5511   11.8156    0.0000 C   0  0  0  0  0  0  0  0  0  0  0  0
   -5.8367   12.2281    0.0000 C   0  0  0  0  0  0  0  0  0  0  0  0
   -7.2656   12.2281    0.0000 C   0  0  0  0  0  0  0  0  0  0  0  0
   -7.2656   13.0531    0.0000 C   0  0  0  0  0  0  0  0  0  0  0  0
   -7.9801   13.4656    0.0000 C   0  0  0  0  0  0  0  0  0  0  0  0
   -7.9801   14.2906    0.0000 C   0  0  0  0  0  0  0  0  0  0  0  0
   -8.6946   14.7031    0.0000 C   0  0  0  0  0  0  0  0  0  0  0  0
   -7.2656   14.7031    0.0000 C   0  0  0  0  0  0  0  0  0  0  0  0
    7.0238  -11.6969    0.0000 O   0  0  0  0  0  0  0  0  0  0  0  0
    5.5949  -12.5219    0.0000 O   0  0  0  0  0  0  0  0  0  0  0  0
    4.1659  -11.6969    0.0000 O   0  0  0  0  0  0  0  0  0  0  0  0
    4.1659  -10.0469    0.0000 O   0  0  0  0  0  0  0  0  0  0  0  0
  1  2  1  0  0  0  0
  1  6  2  0  0  0  0
  1  7  1  0  0  0  0
  2  3  1  0  0  0  0
  2 60  2  0  0  0  0
  3  4  2  0  0  0  0
  3 61  1  0  0  0  0
  4  5  1  0  0  0  0
  4 62  1  0  0  0  0
  5  6  1  0  0  0  0
  5 63  2  0  0  0  0
  6 10  1  0  0  0  0
  8 61  1  0  0  0  0
  9 62  1  0  0  0  0
 10 11  1  0  0  0  0
 11 12  2  0  0  0  0
 13 12  1  0  0  0  0
 14 12  1  0  0  0  0
 14 15  1  0  0  0  0
 15 16  1  0  0  0  0
 16 17  2  0  0  0  0
 17 18  1  0  0  0  0
 17 19  1  0  0  0  0
 19 20  1  0  0  0  0
 20 21  1  0  0  0  0
 21 22  2  0  0  0  0
 22 23  1  0  0  0  0
 22 24  1  0  0  0  0
 24 25  1  0  0  0  0
 25 26  1  0  0  0  0
 26 27  2  0  0  0  0
 27 28  1  0  0  0  0
 27 29  1  0  0  0  0
 29 30  1  0  0  0  0
 30 31  1  0  0  0  0
 31 32  2  0  0  0  0
 32 33  1  0  0  0  0
 32 34  1  0  0  0  0
 34 35  1  0  0  0  0
 35 36  1  0  0  0  0
 36 37  2  0  0  0  0
 37 38  1  0  0  0  0
 37 39  1  0  0  0  0
 39 40  1  0  0  0  0
 40 41  1  0  0  0  0
 41 42  2  0  0  0  0
 42 43  1  0  0  0  0
 42 44  1  0  0  0  0
 44 45  1  0  0  0  0
 45 46  1  0  0  0  0
 46 47  2  0  0  0  0
 47 48  1  0  0  0  0
 47 49  1  0  0  0  0
 49 50  1  0  0  0  0
 50 51  1  0  0  0  0
 51 52  2  0  0  0  0
 52 53  1  0  0  0  0
 52 54  1  0  0  0  0
 54 55  1  0  0  0  0
 55 56  1  0  0  0  0
 56 57  2  0  0  0  0
 57 58  1  0  0  0  0
 57 59  1  0  0  0  0
M  END
>  <MOLREGNO>
502152

>  <CHEMBLID>
CHEMBL454801

>  <SYNONYMS>
UBIDECARENONE

>  <MAX_PHASE>
3

>  <MOLWEIGHT>
863.34

>  <ALOGP>
18.77

>  <PSA>
52.6

>  <HBA>
4

>  <HBD>
0

>  <RO5>
2

>  <RTB>
31

>  <RO3>
N

>  <ACD_MOST_APKA>


>  <ACD_MOST_BPKA>


>  <ACD_LOGP>
19.12

>  <ACD_LOGD>
19.12

>  <AROMATIC_RINGS>
0

>  <HEAVY_ATOMS>
63

>  <QED_WEIGHTED>
.05

>  <HBA_LIPINSKI>
4

>  <HBD_LIPINSKI>
0

>  <NUM_LIPINSKI_RO5_VIOLATIONS>
1

>  <MW_MONOISOTOPIC>
862.6839

>  <MOLECULAR_SPECIES>


>  <FULL_MOLFORMULA>
C59H90O4

$$$$

          11280715052D 1   1.00000     0.00000     0

 28 30  0     1  0            999 V2000
    5.8792   -5.8667    0.0000 C   0  0  0  0  0  0           0  0  0
    5.8792   -6.4667    0.0000 C   0  0  2  0  0  0           0  0  0
    6.4000   -5.5667    0.0000 C   0  0  0  0  0  0           0  0  0
    5.3625   -6.7667    0.0000 C   0  0  2  0  0  0           0  0  0
    5.3625   -5.5667    0.0000 C   0  0  0  0  0  0           0  0  0
    4.8292   -6.4667    0.0000 C   0  0  3  0  0  0           0  0  0
    4.8417   -5.8667    0.0000 O   0  0  0  0  0  0           0  0  0
    6.4000   -6.7667    0.0000 O   0  0  0  0  0  0           0  0  0
    6.9167   -5.8750    0.0000 O   0  0  0  0  0  0           0  0  0
    6.4000   -7.3667    0.0000 C   0  0  0  0  0  0           0  0  0
    7.4500   -5.5667    0.0000 C   0  0  0  0  0  0           0  0  0
    6.4000   -4.9667    0.0000 C   0  0  0  0  0  0           0  0  0
    5.3625   -7.3667    0.0000 O   0  0  0  0  0  0           0  0  0
    6.9167   -4.6542    0.0000 C   0  0  0  0  0  0           0  0  0
    6.9167   -7.6667    0.0000 C   0  0  0  0  0  0           0  0  0
    7.4500   -4.9667    0.0000 C   0  0  0  0  0  0           0  0  0
    4.8417   -7.6750    0.0000 C   0  0  0  0  0  0           0  0  0
    5.3625   -4.9667    0.0000 C   0  0  0  0  0  0           0  0  0
    5.8792   -7.6667    0.0000 O   0  0  0  0  0  0           0  0  0
    7.9667   -5.8750    0.0000 O   0  0  0  0  0  0           0  0  0
    5.8792   -4.6667    0.0000 C   0  0  0  0  0  0           0  0  0
    4.3167   -7.3750    0.0000 O   0  0  0  0  0  0           0  0  0
    7.4375   -7.3667    0.0000 C   0  0  0  0  0  0           0  0  0
    4.3125   -6.7667    0.0000 C   0  0  0  0  0  0           0  0  0
    4.2500   -6.3125    0.0000 C   0  0  0  0  0  0           0  0  0
    6.9125   -8.2667    0.0000 C   0  0  0  0  0  0           0  0  0
    4.8417   -8.2750    0.0000 C   0  0  0  0  0  0           0  0  0
    7.9542   -7.6667    0.0000 C   0  0  0  0  0  0           0  0  0
  2  1  1  0     0  0
  3  1  2  0     0  0
  4  2  1  0     0  0
  5  1  1  0     0  0
  6  7  1  0     0  0
  7  5  1  0     0  0
  2  8  1  1     0  0
  9  3  1  0     0  0
 10  8  1  0     0  0
 11  9  1  0     0  0
 12  3  1  0     0  0
  4 13  1  1     0  0
 14 12  1  0     0  0
 15 10  1  0     0  0
 16 14  2  0     0  0
 17 13  1  0     0  0
 18  5  2  0     0  0
 19 10  2  0     0  0
 20 11  2  0     0  0
 21 18  1  0     0  0
 22 17  2  0     0  0
 23 15  2  0     0  0
 24  6  1  0     0  0
 25  6  1  0     0  0
 26 15  1  0     0  0
 27 17  1  0     0  0
 28 23  1  0     0  0
 21 12  2  0     0  0
  6  4  1  0     0  0
 16 11  1  0     0  0
M  END
>  <MOLREGNO>
110533

>  <CHEMBLID>
CHEMBL71876

>  <SYNONYMS>


>  <MAX_PHASE>
0

>  <MOLWEIGHT>
386.4

>  <ALOGP>
3.5

>  <PSA>
88.13

>  <HBA>
7

>  <HBD>
0

>  <RO5>
0

>  <RTB>
5

>  <RO3>
N

>  <ACD_MOST_APKA>


>  <ACD_MOST_BPKA>


>  <ACD_LOGP>
4.14

>  <ACD_LOGD>
4.14

>  <AROMATIC_RINGS>
1

>  <HEAVY_ATOMS>
28

>  <QED_WEIGHTED>
.44

>  <HBA_LIPINSKI>
7

>  <HBD_LIPINSKI>
0

>  <NUM_LIPINSKI_RO5_VIOLATIONS>
0

>  <MW_MONOISOTOPIC>
386.1366

>  <MOLECULAR_SPECIES>


>  <FULL_MOLFORMULA>
C21H22O7

$$$$

  SciTegic12231509382D

 25 28  0  0  0  0            999 V2000
    2.7688   -0.4853    0.0000 O   0  0
    1.4311   -0.4853    0.0000 O   0  0
    5.4008   -3.4098    0.0000 O   0  0
    1.3502   -4.8098    0.0000 O   0  5
    2.5884   -5.5253    0.0000 O   0  0
    1.6053   -3.9635    0.0000 O   0  0
    0.4542   -3.4098    0.0000 O   0  0
    2.1778   -4.8098    0.0000 N   0  3
    2.9244   -1.9849    0.0000 C   0  0
    2.5138   -2.7005    0.0000 C   0  0
    3.7520   -1.9849    0.0000 C   0  0
    2.5138   -1.2693    0.0000 C   0  0
    2.9244   -3.4098    0.0000 C   0  0
    1.6862   -2.7005    0.0000 C   0  0
    4.1626   -2.7005    0.0000 C   0  0
    1.6862   -1.2693    0.0000 C   0  0
    3.7520   -3.4098    0.0000 C   0  0
    1.2755   -1.9849    0.0000 C   0  0
    4.9840   -2.7005    0.0000 C   0  0
    4.1626   -1.2693    0.0000 C   0  0
    1.2755   -3.4098    0.0000 C   0  0
    2.1031    0.0000    0.0000 C   0  0
    5.4008   -1.9849    0.0000 C   0  0
    4.9840   -1.2693    0.0000 C   0  0
    6.2221   -3.4098    0.0000 C   0  0
  1 12  1  0
  1 22  1  0
  2 16  1  0
  2 22  1  0
  3 19  1  0
  3 25  1  0
  4  8  1  0
  5  8  2  0
  6 21  1  0
  7 21  2  0
  8 13  1  0
  9 10  2  0
  9 11  1  0
  9 12  1  0
 10 13  1  0
 10 14  1  0
 11 15  2  0
 11 20  1  0
 12 16  2  0
 13 17  2  0
 14 18  2  0
 14 21  1  0
 15 17  1  0
 15 19  1  0
 16 18  1  0
 19 23  2  0
 20 24  2  0
 23 24  1  0
M  CHG  2   4  -1   8   1
M  END
>  <MOLREGNO>
150437

>  <CHEMBLID>
CHEMBL93353

>  <SYNONYMS>
Aristolochic Acid I

>  <MAX_PHASE>
0

>  <MOLWEIGHT>
341.27

>  <ALOGP>
2.92

>  <PSA>
110.81

>  <HBA>
7

>  <HBD>
1

>  <RO5>
0

>  <RTB>
3

>  <RO3>
N

>  <ACD_MOST_APKA>
2.99

>  <ACD_MOST_BPKA>


>  <ACD_LOGP>
2.92

>  <ACD_LOGD>
-.21

>  <AROMATIC_RINGS>
3

>  <HEAVY_ATOMS>
25

>  <QED_WEIGHTED>
.44

>  <HBA_LIPINSKI>
8

>  <HBD_LIPINSKI>
1

>  <NUM_LIPINSKI_RO5_VIOLATIONS>
0

>  <MW_MONOISOTOPIC>
341.0536

>  <MOLECULAR_SPECIES>
ACID

>  <FULL_MOLFORMULA>
C17H11NO7

$$$$

  Mrv0541 04051115152D          

 27 29  0  0  0  0            999 V2000
   -1.4788    3.6993    0.0000 Cl  0  0  0  0  0  0  0  0  0  0  0  0
   -1.4788    2.8743    0.0000 C   0  0  0  0  0  0  0  0  0  0  0  0
   -0.7643    2.4618    0.0000 C   0  0  0  0  0  0  0  0  0  0  0  0
   -0.7643    1.6368    0.0000 C   0  0  0  0  0  0  0  0  0  0  0  0
   -1.4788    1.2243    0.0000 C   0  0  0  0  0  0  0  0  0  0  0  0
   -2.1932    1.6368    0.0000 C   0  0  0  0  0  0  0  0  0  0  0  0
   -2.1932    2.4618    0.0000 C   0  0  0  0  0  0  0  0  0  0  0  0
   -0.0498    1.2243    0.0000 N   0  0  0  0  0  0  0  0  0  0  0  0
   -0.0498    0.3993    0.0000 C   0  0  0  0  0  0  0  0  0  0  0  0
   -0.7643   -0.0132    0.0000 C   0  0  0  0  0  0  0  0  0  0  0  0
   -1.5489    0.2418    0.0000 N   0  0  0  0  0  0  0  0  0  0  0  0
   -0.7643   -0.8382    0.0000 C   0  0  0  0  0  0  0  0  0  0  0  0
   -1.5489   -1.0931    0.0000 N   0  0  0  0  0  0  0  0  0  0  0  0
   -1.8039   -1.8777    0.0000 C   0  0  0  0  0  0  0  0  0  0  0  0
   -2.6108   -2.0492    0.0000 C   0  0  0  0  0  0  0  0  0  0  0  0
   -1.2518   -2.4908    0.0000 C   0  0  0  0  0  0  0  0  0  0  0  0
   -2.0338   -0.4257    0.0000 C   0  0  0  0  0  0  0  0  0  0  0  0
   -0.0498   -1.2507    0.0000 N   0  0  0  0  0  0  0  0  0  0  0  0
    0.6647   -0.8382    0.0000 C   0  0  0  0  0  0  0  0  0  0  0  0
    0.6647   -0.0132    0.0000 N   0  0  0  0  0  0  0  0  0  0  0  0
    1.3791   -1.2507    0.0000 N   0  0  0  0  0  0  0  0  0  0  0  0
    2.0936   -0.8382    0.0000 C   0  0  2  0  0  0  0  0  0  0  0  0
    2.8081   -1.2507    0.0000 C   0  0  0  0  0  0  0  0  0  0  0  0
    3.5225   -0.8382    0.0000 C   0  0  0  0  0  0  0  0  0  0  0  0
    2.8081   -2.0757    0.0000 C   0  0  0  0  0  0  0  0  0  0  0  0
    2.0936   -0.0132    0.0000 C   0  0  0  0  0  0  0  0  0  0  0  0
    2.8081    0.3993    0.0000 O   0  0  0  0  0  0  0  0  0  0  0  0
  2  1  1  0  0  0  0
  2  3  2  0  0  0  0
  7  2  1  0  0  0  0
  4  3  1  0  0  0  0
  4  5  2  0  0  0  0
  4  8  1  0  0  0  0
  5  6  1  0  0  0  0
  6  7  2  0  0  0  0
  9  8  1  0  0  0  0
 10  9  2  0  0  0  0
  9 20  1  0  0  0  0
 10 11  1  0  0  0  0
 12 10  1  0  0  0  0
 17 11  2  0  0  0  0
 12 13  1  0  0  0  0
 12 18  2  0  0  0  0
 14 13  1  0  0  0  0
 17 13  1  0  0  0  0
 14 15  1  0  0  0  0
 14 16  1  0  0  0  0
 19 18  1  0  0  0  0
 19 20  2  0  0  0  0
 19 21  1  0  0  0  0
 22 21  1  1  0  0  0
 22 23  1  0  0  0  0
 22 26  1  0  0  0  0
 23 24  1  0  0  0  0
 23 25  1  0  0  0  0
 26 27  1  0  0  0  0
M  END
>  <MOLREGNO>
31153

>  <CHEMBLID>
CHEMBL23327

>  <SYNONYMS>
Purvalanola | Piceatannol | Purvalanol A

>  <MAX_PHASE>
0

>  <MOLWEIGHT>
388.89

>  <ALOGP>
4.46

>  <PSA>
87.89

>  <HBA>
6

>  <HBD>
3

>  <RO5>
0

>  <RTB>
7

>  <RO3>
N

>  <ACD_MOST_APKA>


>  <ACD_MOST_BPKA>
4.25

>  <ACD_LOGP>
3.12

>  <ACD_LOGD>
3.12

>  <AROMATIC_RINGS>
3

>  <HEAVY_ATOMS>
27

>  <QED_WEIGHTED>
.55

>  <HBA_LIPINSKI>
7

>  <HBD_LIPINSKI>
3

>  <NUM_LIPINSKI_RO5_VIOLATIONS>
0

>  <MW_MONOISOTOPIC>
388.1778

>  <MOLECULAR_SPECIES>
NEUTRAL

>  <FULL_MOLFORMULA>
C19H25ClN6O

$$$$

  Mrv0541 04051115152D          

 18 19  0  0  0  0            999 V2000
   -1.4181    2.1660    0.0000 C   0  0  0  0  0  0  0  0  0  0  0  0
   -2.1325    1.7535    0.0000 C   0  0  0  0  0  0  0  0  0  0  0  0
   -2.1325    0.9285    0.0000 C   0  0  0  0  0  0  0  0  0  0  0  0
   -1.4181    0.5160    0.0000 C   0  0  0  0  0  0  0  0  0  0  0  0
   -0.7036    0.9285    0.0000 C   0  0  0  0  0  0  0  0  0  0  0  0
   -0.7036    1.7535    0.0000 C   0  0  0  0  0  0  0  0  0  0  0  0
    0.0109    0.5160    0.0000 C   0  0  0  0  0  0  0  0  0  0  0  0
    0.0109   -0.3090    0.0000 C   0  0  0  0  0  0  0  0  0  0  0  0
    0.7253   -0.7215    0.0000 C   0  0  0  0  0  0  0  0  0  0  0  0
    0.7253   -1.5465    0.0000 C   0  0  0  0  0  0  0  0  0  0  0  0
    1.4398   -1.9590    0.0000 C   0  0  0  0  0  0  0  0  0  0  0  0
    2.1543   -1.5465    0.0000 C   0  0  0  0  0  0  0  0  0  0  0  0
    2.1543   -0.7215    0.0000 C   0  0  0  0  0  0  0  0  0  0  0  0
    1.4398   -0.3090    0.0000 C   0  0  0  0  0  0  0  0  0  0  0  0
    2.8687   -1.9590    0.0000 O   0  0  0  0  0  0  0  0  0  0  0  0
   -2.8470    0.5160    0.0000 O   0  0  0  0  0  0  0  0  0  0  0  0
   -1.4181    2.9910    0.0000 O   0  0  0  0  0  0  0  0  0  0  0  0
    1.4398   -2.7840    0.0000 O   0  0  0  0  0  0  0  0  0  0  0  0
  1  6  1  0  0  0  0
  1  2  2  0  0  0  0
  1 17  1  0  0  0  0
  2  3  1  0  0  0  0
  3 16  1  0  0  0  0
  3  4  2  0  0  0  0
  4  5  1  0  0  0  0
  5  7  1  0  0  0  0
  5  6  2  0  0  0  0
  7  8  2  0  0  0  0
  8  9  1  0  0  0  0
 10  9  1  0  0  0  0
 14  9  2  0  0  0  0
 10 11  2  0  0  0  0
 11 18  1  0  0  0  0
 11 12  1  0  0  0  0
 12 15  1  0  0  0  0
 12 13  2  0  0  0  0
 13 14  1  0  0  0  0
M  END
>  <MOLREGNO>
108981

>  <CHEMBLID>
CHEMBL69863

>  <SYNONYMS>
NSC-365798

>  <MAX_PHASE>
0

>  <MOLWEIGHT>
244.24

>  <ALOGP>
2.85

>  <PSA>
80.92

>  <HBA>
4

>  <HBD>
4

>  <RO5>
0

>  <RTB>
2

>  <RO3>
N

>  <ACD_MOST_APKA>
9.17

>  <ACD_MOST_BPKA>


>  <ACD_LOGP>
2.68

>  <ACD_LOGD>
2.67

>  <AROMATIC_RINGS>
2

>  <HEAVY_ATOMS>
18

>  <QED_WEIGHTED>
.48

>  <HBA_LIPINSKI>
4

>  <HBD_LIPINSKI>
4

>  <NUM_LIPINSKI_RO5_VIOLATIONS>
0

>  <MW_MONOISOTOPIC>
244.0736

>  <MOLECULAR_SPECIES>
NEUTRAL

>  <FULL_MOLFORMULA>
C14H12O4

$$$$

  SciTegic01161211212D

 14 15  0  0  0  0            999 V2000
   12.1000   -6.5875    0.0000 C   0  0
   12.8125   -6.1750    0.0000 O   0  0
   11.3875   -6.1750    0.0000 C   0  0
   12.1000   -7.4125    0.0000 C   0  0
   13.5250   -6.5875    0.0000 C   0  0
   12.8125   -7.8250    0.0000 C   0  0
   10.6708   -6.5875    0.0000 C   0  0
   10.6708   -7.4125    0.0000 C   0  0
   13.5250   -7.4125    0.0000 C   0  0
   11.3875   -7.8250    0.0000 C   0  0
   14.2458   -6.1750    0.0000 O   0  0
    9.9583   -6.1750    0.0000 O   0  0
    9.9583   -7.8250    0.0000 O   0  0
    9.2375   -7.4125    0.0000 C   0  0
  2  1  1  0
  3  1  1  0
  4  1  2  0
  5  2  1  0
  6  4  1  0
  7  3  2  0
  8 10  2  0
  9  6  2  0
 10  4  1  0
 11  5  2  0
 12  7  1  0
 13  8  1  0
 14 13  1  0
  8  7  1  0
  5  9  1  0
M  END
>  <MOLREGNO>
110840

>  <CHEMBLID>
CHEMBL71851

>  <SYNONYMS>
NSC-405647

>  <MAX_PHASE>
0

>  <MOLWEIGHT>
192.17

>  <ALOGP>
1.64

>  <PSA>
55.76

>  <HBA>
4

>  <HBD>
1

>  <RO5>
0

>  <RTB>
1

>  <RO3>
N

>  <ACD_MOST_APKA>
7.91

>  <ACD_MOST_BPKA>


>  <ACD_LOGP>
1.38

>  <ACD_LOGD>
1.26

>  <AROMATIC_RINGS>
1

>  <HEAVY_ATOMS>
14

>  <QED_WEIGHTED>
.54

>  <HBA_LIPINSKI>
4

>  <HBD_LIPINSKI>
1

>  <NUM_LIPINSKI_RO5_VIOLATIONS>
0

>  <MW_MONOISOTOPIC>
192.0423

>  <MOLECULAR_SPECIES>
NEUTRAL

>  <FULL_MOLFORMULA>
C10H8O4

$$$$

  CDK    5/12/10,14:52

 14 15  0  0  0  0  0  0  0  0999 V2000
   -2.7013  -11.3749    0.0000 C   0  0  0  0  0  0  0  0  0  0  0  0
   -2.7025  -12.2137    0.0000 C   0  0  0  0  0  0  0  0  0  0  0  0
   -1.9920  -12.6323    0.0000 C   0  0  0  0  0  0  0  0  0  0  0  0
   -1.9938  -10.9564    0.0000 C   0  0  0  0  0  0  0  0  0  0  0  0
   -1.2829  -11.3714    0.0000 C   0  0  0  0  0  0  0  0  0  0  0  0
   -1.2840  -12.2112    0.0000 C   0  0  0  0  0  0  0  0  0  0  0  0
   -0.5755  -12.6299    0.0000 O   0  0  0  0  0  0  0  0  0  0  0  0
    0.1387  -12.2132    0.0000 C   0  0  0  0  0  0  0  0  0  0  0  0
    0.1399  -11.3733    0.0000 C   0  0  0  0  0  0  0  0  0  0  0  0
   -0.5731  -10.9501    0.0000 C   0  0  0  0  0  0  0  0  0  0  0  0
    0.8476  -12.6335    0.0000 O   0  0  0  0  0  0  0  0  0  0  0  0
   -3.4128  -12.6314    0.0000 O   0  0  0  0  0  0  0  0  0  0  0  0
   -4.1225  -12.2126    0.0000 C   0  0  0  0  0  0  0  0  0  0  0  0
   -3.4114  -10.9568    0.0000 O   0  0  0  0  0  0  0  0  0  0  0  0
  1  2  2  0  0  0  0 
  5  4  2  0  0  0  0 
  4  1  1  0  0  0  0 
  5 10  1  0  0  0  0 
  6  7  1  0  0  0  0 
  7  8  1  0  0  0  0 
  8  9  1  0  0  0  0 
  9 10  2  0  0  0  0 
  5  6  1  0  0  0  0 
  8 11  2  0  0  0  0 
  2 12  1  0  0  0  0 
  2  3  1  0  0  0  0 
 12 13  1  0  0  0  0 
  3  6  2  0  0  0  0 
  1 14  1  0  0  0  0 
M  END
>  <MOLREGNO>
378018

>  <CHEMBLID>
CHEMBL390320

>  <SYNONYMS>
Isoscopoletin | Isoscopoletine

>  <MAX_PHASE>
0

>  <MOLWEIGHT>
192.17

>  <ALOGP>
1.64

>  <PSA>
55.76

>  <HBA>
4

>  <HBD>
1

>  <RO5>
0

>  <RTB>
1

>  <RO3>
N

>  <ACD_MOST_APKA>
8.94

>  <ACD_MOST_BPKA>


>  <ACD_LOGP>
.99

>  <ACD_LOGD>
.98

>  <AROMATIC_RINGS>
1

>  <HEAVY_ATOMS>
14

>  <QED_WEIGHTED>
.54

>  <HBA_LIPINSKI>
4

>  <HBD_LIPINSKI>
1

>  <NUM_LIPINSKI_RO5_VIOLATIONS>
0

>  <MW_MONOISOTOPIC>
192.0423

>  <MOLECULAR_SPECIES>
NEUTRAL

>  <FULL_MOLFORMULA>
C10H8O4

$$$$

  SciTegic11201309402D

 30 32  0  0  0  0            999 V2000
   -1.0427   -1.2288    0.0000 C   0  0  1  0  0  0
   -0.6302   -1.9433    0.0000 O   0  0
   -1.8677   -1.2288    0.0000 C   0  0
   -2.2802   -0.5143    0.0000 C   0  0
   -1.8677    0.2001    0.0000 C   0  0
   -1.0427    0.2001    0.0000 C   0  0  2  0  0  0
   -0.6302    0.9146    0.0000 C   0  0  2  0  0  0
   -1.0427    1.6291    0.0000 O   0  0
    0.1948    0.9146    0.0000 C   0  0  2  0  0  0
    0.6073    1.6291    0.0000 O   0  0
    0.6073    0.2001    0.0000 C   0  0  1  0  0  0
    1.4323    0.2001    0.0000 O   0  0
    0.1948   -0.5143    0.0000 C   0  0  1  0  0  0
   -0.2177   -1.2288    0.0000 O   0  0
   -0.6302   -0.5143    0.0000 C   0  0  1  0  0  0
    0.6073   -1.2288    0.0000 C   0  0
    0.1948   -1.9433    0.0000 O   0  0
    1.4323   -1.2288    0.0000 C   0  0
    1.8448   -0.5143    0.0000 C   0  0  2  0  0  0
    2.5732   -0.9017    0.0000 C   0  0
    2.6020   -1.7262    0.0000 C   0  0
    2.5732   -0.1270    0.0000 C   0  0
    1.0198    0.9146    0.0000 C   0  0
   -2.5673    0.6373    0.0000 C   0  0
   -1.8965    1.0246    0.0000 C   0  0
   -0.7164   -1.3348    0.0000 C   0  0
    0.1948    2.3435    0.0000 C   0  0
   -0.6302    2.3435    0.0000 O   0  0
    0.6073    3.0580    0.0000 C   0  0
   -1.5427    1.0661    0.0000 H   0  0
  1  2  1  1
  1  3  1  0
  1 15  1  0
  3  4  1  0
  4  5  1  0
  6  5  1  0
 24  5  1  0
 25  5  1  0
  6  7  1  0
 15  6  1  0
  7  8  1  6
  7  9  1  0
  9 10  1  6
  9 11  1  0
 27 10  1  0
 11 12  1  0
 11 13  1  0
 11 23  1  6
 19 12  1  0
 13 14  1  1
 15 13  1  0
 16 13  1  0
 15 26  1  6
 16 17  2  0
 16 18  1  0
 18 19  1  0
 19 20  1  0
 19 22  1  6
 20 21  2  0
 27 28  2  0
 27 29  1  0
  6 30  1  1
M  END
>  <MOLREGNO>
84507

>  <CHEMBLID>
CHEMBL52606

>  <SYNONYMS>
HL 362 | COLFORSIN | BOFORSIN | FORSKOLIN | L 75 1362B

>  <MAX_PHASE>
0

>  <MOLWEIGHT>
410.5

>  <ALOGP>
.84

>  <PSA>
113.29

>  <HBA>
7

>  <HBD>
3

>  <RO5>
0

>  <RTB>
3

>  <RO3>
N

>  <ACD_MOST_APKA>
11

>  <ACD_MOST_BPKA>


>  <ACD_LOGP>
2.41

>  <ACD_LOGD>
2.41

>  <AROMATIC_RINGS>
0

>  <HEAVY_ATOMS>
29

>  <QED_WEIGHTED>
.47

>  <HBA_LIPINSKI>
7

>  <HBD_LIPINSKI>
3

>  <NUM_LIPINSKI_RO5_VIOLATIONS>
0

>  <MW_MONOISOTOPIC>
410.2305

>  <MOLECULAR_SPECIES>
NEUTRAL

>  <FULL_MOLFORMULA>
C22H34O7

$$$$

  CDK    9/16/09,9:19

 28 30  0  0  0  0  0  0  0  0999 V2000
   -3.5556   -0.1583    0.0000 C   0  0  0  0  0  0  0  0  0  0  0  0
   -3.5568   -0.9857    0.0000 C   0  0  0  0  0  0  0  0  0  0  0  0
   -2.8419   -1.3985    0.0000 C   0  0  0  0  0  0  0  0  0  0  0  0
   -2.8437    0.2545    0.0000 C   0  0  0  0  0  0  0  0  0  0  0  0
   -2.1284   -0.1547    0.0000 C   0  0  0  0  0  0  0  0  0  0  0  0
   -2.1250   -0.9831    0.0000 C   0  0  0  0  0  0  0  0  0  0  0  0
   -1.4097   -1.3922    0.0000 C   0  0  0  0  0  0  0  0  0  0  0  0
   -0.6933   -0.9773    0.0000 C   0  0  0  0  0  0  0  0  0  0  0  0
   -0.6967   -0.1488    0.0000 C   0  0  0  0  0  0  0  0  0  0  0  0
   -1.4165    0.2648    0.0000 O   0  0  0  0  0  0  0  0  0  0  0  0
   -1.4075   -2.2172    0.0000 O   0  0  0  0  0  0  0  0  0  0  0  0
   -2.8414   -2.2235    0.0000 O   0  0  0  0  0  0  0  0  0  0  0  0
   -4.2702    0.2540    0.0000 O   0  0  0  0  0  0  0  0  0  0  0  0
    0.0165    0.2659    0.0000 C   0  0  0  0  0  0  0  0  0  0  0  0
    0.7312   -0.1468    0.0000 C   0  0  0  0  0  0  0  0  0  0  0  0
    1.4439    0.2672    0.0000 C   0  0  0  0  0  0  0  0  0  0  0  0
    1.4418    1.0931    0.0000 C   0  0  0  0  0  0  0  0  0  0  0  0
    0.7210    1.5032    0.0000 C   0  0  0  0  0  0  0  0  0  0  0  0
    0.0113    1.0869    0.0000 C   0  0  0  0  0  0  0  0  0  0  0  0
    0.7156    2.3282    0.0000 O   0  0  0  0  0  0  0  0  0  0  0  0
    2.1544    1.5088    0.0000 O   0  0  0  0  0  0  0  0  0  0  0  0
    0.0223   -1.3878    0.0000 O   0  0  0  0  0  0  0  0  0  0  0  0
    0.0245   -2.2128    0.0000 C   0  0  0  0  0  0  0  0  0  0  0  0
   -4.2716   -1.3976    0.0000 O   0  0  0  0  0  0  0  0  0  0  0  0
   -4.9857   -0.9845    0.0000 C   0  0  0  0  0  0  0  0  0  0  0  0
   -4.9845   -0.1586    0.0000 C   0  0  0  0  0  0  0  0  0  0  0  0
    1.4273    2.7454    0.0000 C   0  0  0  0  0  0  0  0  0  0  0  0
    2.1508    2.3338    0.0000 C   0  0  0  0  0  0  0  0  0  0  0  0
  3  6  2  0  0  0  0 
  9 14  1  0  0  0  0 
  1  2  2  0  0  0  0 
 14 15  2  0  0  0  0 
  5  4  2  0  0  0  0 
 15 16  1  0  0  0  0 
  4  1  1  0  0  0  0 
 16 17  2  0  0  0  0 
  5 10  1  0  0  0  0 
 17 18  1  0  0  0  0 
  6  7  1  0  0  0  0 
 18 19  2  0  0  0  0 
 19 14  1  0  0  0  0 
  7  8  1  0  0  0  0 
 18 20  1  0  0  0  0 
  8  9  2  0  0  0  0 
 17 21  1  0  0  0  0 
  9 10  1  0  0  0  0 
  8 22  1  0  0  0  0 
  5  6  1  0  0  0  0 
 22 23  1  0  0  0  0 
  7 11  2  0  0  0  0 
  2 24  1  0  0  0  0 
 24 25  1  0  0  0  0 
  3 12  1  0  0  0  0 
 13 26  1  0  0  0  0 
  2  3  1  0  0  0  0 
 20 27  1  0  0  0  0 
  1 13  1  0  0  0  0 
 21 28  1  0  0  0  0 
M  END
>  <MOLREGNO>
379529

>  <CHEMBLID>
CHEMBL225700

>  <SYNONYMS>
Artemetin | Artemisetin

>  <MAX_PHASE>
0

>  <MOLWEIGHT>
388.37

>  <ALOGP>
2.52

>  <PSA>
92.68

>  <HBA>
8

>  <HBD>
1

>  <RO5>
0

>  <RTB>
6

>  <RO3>
N

>  <ACD_MOST_APKA>
6.12

>  <ACD_MOST_BPKA>


>  <ACD_LOGP>
2.97

>  <ACD_LOGD>
1.68

>  <AROMATIC_RINGS>
2

>  <HEAVY_ATOMS>
28

>  <QED_WEIGHTED>
.81

>  <HBA_LIPINSKI>
8

>  <HBD_LIPINSKI>
1

>  <NUM_LIPINSKI_RO5_VIOLATIONS>
0

>  <MW_MONOISOTOPIC>
388.1158

>  <MOLECULAR_SPECIES>
ACID

>  <FULL_MOLFORMULA>
C20H20O8

$$$$

  SciTegic10111218072D

 30 34  0  0  1  0            999 V2000
    4.8208   -7.0333    0.0000 C   0  0  1  0  0  0
    4.8167   -6.2083    0.0000 C   0  0  1  0  0  0
    2.6833   -7.4500    0.0000 C   0  0  1  0  0  0
    2.6833   -8.2750    0.0000 C   0  0  1  0  0  0
    4.1083   -7.4375    0.0000 C   0  0  1  0  0  0
    3.3958   -7.0333    0.0000 C   0  0  2  0  0  0
    5.8458   -5.1625    0.0000 C   0  0
    5.5958   -5.9458    0.0000 C   0  0  1  0  0  0
    6.6292   -4.9000    0.0000 C   0  0
    6.6208   -4.0750    0.0000 C   0  0
    5.6083   -7.2750    0.0000 C   0  0
    4.1083   -5.7875    0.0000 C   0  0
    3.3958   -6.2083    0.0000 C   0  0
    1.9708   -8.6833    0.0000 C   0  0
    5.8333   -3.8333    0.0000 O   0  0
    6.0917   -6.6125    0.0000 C   0  0
    1.9708   -7.0333    0.0000 C   0  0
    4.1083   -8.2750    0.0000 C   0  0
    3.3958   -8.6833    0.0000 C   0  0
    5.3583   -4.5000    0.0000 C   0  0
    7.2833   -3.5875    0.0000 O   0  0
    4.8167   -7.8583    0.0000 O   0  0
    2.6833   -9.1000    0.0000 O   0  0
    1.2583   -8.2750    0.0000 C   0  0  2  0  0  0
    4.8083   -5.3833    0.0000 C   0  0
    1.2583   -7.4500    0.0000 C   0  0
    2.6833   -6.6250    0.0000 C   0  0
    0.5458   -8.6875    0.0000 O   0  0
    4.1042   -6.6125    0.0000 H   0  0
    3.3917   -7.8583    0.0000 H   0  0
  3  6  1  0
  4 19  1  0
  5  1  1  0
  6  5  1  0
  8  7  1  1
  8  2  1  0
  9  7  2  0
 10  9  1  0
 11  1  1  0
 12  2  1  0
 13  6  1  0
 14  4  1  0
 15 20  1  0
 16 11  1  0
 17  3  1  0
 18  5  1  0
 19 18  1  0
 20  7  1  0
 21 10  2  0
  1 22  1  1
  4 23  1  1
 24 14  1  0
  2 25  1  1
 26 17  1  0
  3 27  1  1
 24 28  1  1
 16  8  1  0
 12 13  1  0
  3  4  1  0
 26 24  1  0
 10 15  1  0
  5 29  1  1
  2  1  1  0
  6 30  1  6
M  END
>  <MOLREGNO>
464322

>  <CHEMBLID>
CHEMBL460768

>  <SYNONYMS>
Periplogenin

>  <MAX_PHASE>
0

>  <MOLWEIGHT>
390.51

>  <ALOGP>
2.17

>  <PSA>
86.99

>  <HBA>
5

>  <HBD>
3

>  <RO5>
0

>  <RTB>
1

>  <RO3>
N

>  <ACD_MOST_APKA>


>  <ACD_MOST_BPKA>


>  <ACD_LOGP>
1.04

>  <ACD_LOGD>
1.04

>  <AROMATIC_RINGS>
0

>  <HEAVY_ATOMS>
28

>  <QED_WEIGHTED>
.6

>  <HBA_LIPINSKI>
5

>  <HBD_LIPINSKI>
3

>  <NUM_LIPINSKI_RO5_VIOLATIONS>
0

>  <MW_MONOISOTOPIC>
390.2406

>  <MOLECULAR_SPECIES>
NEUTRAL

>  <FULL_MOLFORMULA>
C23H34O5

$$$$

  CDK    9/16/09,9:20

 41 46  0  0  0  0  0  0  0  0999 V2000
   -1.4400   -2.2689    0.0000 O   0  0  0  0  0  0  0  0  0  0  0  0
   -0.7256   -1.0282    0.0000 C   0  0  0  0  0  0  0  0  0  0  0  0
   -0.7256   -1.8533    0.0000 C   0  0  0  0  0  0  0  0  0  0  0  0
   -0.0129   -2.2637    0.0000 C   0  0  0  0  0  0  0  0  0  0  0  0
   -0.0129   -0.6136    0.0000 C   0  0  0  0  0  0  0  0  0  0  0  0
    0.6955   -1.0282    0.0000 C   0  0  0  0  0  0  0  0  0  0  0  0
    0.6966   -1.8533    0.0000 C   0  0  0  0  0  0  0  0  0  0  0  0
    1.4083   -2.2647    0.0000 C   0  0  0  0  0  0  0  0  0  0  0  0
    2.1234   -1.8515    0.0000 C   0  0  0  0  0  0  0  0  0  0  0  0
    1.4062   -0.6145    0.0000 C   0  0  0  0  0  0  0  0  0  0  0  0
    2.1220   -1.0310    0.0000 C   0  0  0  0  0  0  0  0  0  0  0  0
    2.1299    0.6235    0.0000 C   0  0  0  0  0  0  0  0  0  0  0  0
    1.4070    0.2118    0.0000 C   0  0  0  0  0  0  0  0  0  0  0  0
    2.8457    0.2029    0.0000 C   0  0  0  0  0  0  0  0  0  0  0  0
    2.8377   -0.6220    0.0000 C   0  0  0  0  0  0  0  0  0  0  0  0
    3.6200   -0.8834    0.0000 C   0  0  0  0  0  0  0  0  0  0  0  0
    4.1131   -0.2199    0.0000 C   0  0  0  0  0  0  0  0  0  0  0  0
    3.6330    0.4529    0.0000 C   0  0  0  0  0  0  0  0  0  0  0  0
    0.6883   -0.2032    0.0000 C   0  0  0  0  0  0  0  0  0  0  0  0
    0.6924   -2.6742    0.0000 O   0  0  0  0  0  0  0  0  0  0  0  0
    1.4013   -1.4386    0.0000 H   0  0  0  0  0  0  0  0  0  0  0  0
    2.1145   -0.2032    0.0000 H   0  0  0  0  0  0  0  0  0  0  0  0
    2.8317   -1.4470    0.0000 O   0  0  0  0  0  0  0  0  0  0  0  0
    2.8401    1.0282    0.0000 C   0  0  0  0  0  0  0  0  0  0  0  0
    3.8943    1.2354    0.0000 C   0  0  0  0  0  0  0  0  0  0  0  0
    4.6817    1.4768    0.0000 C   0  0  0  0  0  0  0  0  0  0  0  0
    4.6898    2.3018    0.0000 C   0  0  0  0  0  0  0  0  0  0  0  0
    3.9074    2.5632    0.0000 O   0  0  0  0  0  0  0  0  0  0  0  0
    3.4184    1.8996    0.0000 C   0  0  0  0  0  0  0  0  0  0  0  0
    5.3627    2.7778    0.0000 O   0  0  0  0  0  0  0  0  0  0  0  0
   -2.1557   -1.8554    0.0000 C   0  0  0  0  0  0  0  0  0  0  0  0
   -2.1593   -1.0316    0.0000 O   0  0  0  0  0  0  0  0  0  0  0  0
   -2.8708   -0.6222    0.0000 C   0  0  0  0  0  0  0  0  0  0  0  0
   -3.5878   -1.0303    0.0000 C   0  0  0  0  0  0  0  0  0  0  0  0
   -3.5886   -1.8563    0.0000 C   0  0  0  0  0  0  0  0  0  0  0  0
   -2.8724   -2.2743    0.0000 C   0  0  0  0  0  0  0  0  0  0  0  0
   -4.3044   -2.2695    0.0000 O   0  0  0  0  0  0  0  0  0  0  0  0
   -4.3019   -0.6181    0.0000 O   0  0  0  0  0  0  0  0  0  0  0  0
   -2.8689    0.2028    0.0000 C   0  0  0  0  0  0  0  0  0  0  0  0
   -1.4470   -1.4386    0.0000 H   0  0  0  0  0  0  0  0  0  0  0  0
   -5.0153   -1.8590    0.0000 C   0  0  0  0  0  0  0  0  0  0  0  0
  9 11  1  0  0  0  0 
  7 20  1  1  0  0  0 
 10 11  1  0  0  0  0 
 10 21  1  6  0  0  0 
  4  7  1  0  0  0  0 
 11 22  1  1  0  0  0 
  6  5  1  0  0  0  0 
 15 23  1  1  0  0  0 
  6  7  1  0  0  0  0 
 14 24  1  1  0  0  0 
 18 25  1  1  0  0  0 
 25 26  2  0  0  0  0 
 10 13  1  0  0  0  0 
 11 15  1  0  0  0  0 
 14 12  1  0  0  0  0 
 12 13  1  0  0  0  0 
 26 27  1  0  0  0  0 
 27 28  1  0  0  0  0 
 28 29  1  0  0  0  0 
 29 25  1  0  0  0  0 
 14 15  1  0  0  0  0 
 27 30  2  0  0  0  0 
  3  1  1  1  0  0  0 
  2  3  1  0  0  0  0 
 31  1  1  0  0  0  0 
 31 32  1  0  0  0  0 
  2  5  1  0  0  0  0 
  3  4  1  0  0  0  0 
  6 10  1  0  0  0  0 
  7  8  1  0  0  0  0 
 15 16  1  0  0  0  0 
 31 36  1  0  0  0  0 
 32 33  1  0  0  0  0 
 33 34  1  0  0  0  0 
 34 35  1  0  0  0  0 
 35 36  1  0  0  0  0 
 16 17  1  0  0  0  0 
 35 37  1  1  0  0  0 
 17 18  1  0  0  0  0 
 34 38  1  6  0  0  0 
 18 14  1  0  0  0  0 
 33 39  1  1  0  0  0 
  8  9  1  0  0  0  0 
 31 40  1  6  0  0  0 
  6 19  1  1  0  0  0 
 37 41  1  0  0  0  0 
M  END
>  <MOLREGNO>
464321

>  <CHEMBLID>
CHEMBL502236

>  <SYNONYMS>
periplocymarin

>  <MAX_PHASE>
0

>  <MOLWEIGHT>
534.68

>  <ALOGP>
2.49

>  <PSA>
114.68

>  <HBA>
8

>  <HBD>
3

>  <RO5>
1

>  <RTB>
4

>  <RO3>
N

>  <ACD_MOST_APKA>
13.55

>  <ACD_MOST_BPKA>


>  <ACD_LOGP>
1.31

>  <ACD_LOGD>
1.31

>  <AROMATIC_RINGS>
0

>  <HEAVY_ATOMS>
38

>  <QED_WEIGHTED>
.37

>  <HBA_LIPINSKI>
8

>  <HBD_LIPINSKI>
3

>  <NUM_LIPINSKI_RO5_VIOLATIONS>
0

>  <MW_MONOISOTOPIC>
534.3193

>  <MOLECULAR_SPECIES>
NEUTRAL

>  <FULL_MOLFORMULA>
C30H46O8

$$$$

  SciTegic08161218152D

 23 25  0  0  0  0            999 V2000
   -1.9619    0.1179    0.0000 C   0  0  2  0  0  0
   -2.6763    0.5304    0.0000 C   0  0  2  0  0  0
   -3.3908    0.1178    0.0000 C   0  0  1  0  0  0
   -3.3908   -0.7072    0.0000 C   0  0  2  0  0  0
   -2.6763   -1.1196    0.0000 C   0  0  1  0  0  0
   -1.9619   -0.7071    0.0000 O   0  0
   -2.6763    1.3554    0.0000 O   0  0
   -1.2474    0.5304    0.0000 C   0  0
   -0.5329    0.1179    0.0000 O   0  0
   -4.1053    0.5304    0.0000 O   0  0
   -4.1053   -1.1197    0.0000 O   0  0
   -2.6763   -1.9446    0.0000 O   0  0
   -1.9619   -2.3571    0.0000 C   0  0
   -1.9619   -3.1821    0.0000 C   0  0
   -1.2474   -3.5947    0.0000 C   0  0
   -0.5329   -3.1822    0.0000 C   0  0
   -0.5329   -2.3572    0.0000 C   0  0
   -1.2474   -1.9447    0.0000 C   0  0
    0.1816   -1.9446    0.0000 O   0  0
    0.8961   -2.3571    0.0000 C   0  0
    0.8961   -3.1821    0.0000 C   0  0
    0.1816   -3.5946    0.0000 C   0  0
    1.6105   -1.9446    0.0000 O   0  0
  1  2  1  0
  2  3  1  0
  3  4  1  0
  4  5  1  0
  5  6  1  0
  6  1  1  0
  2  7  1  6
  1  8  1  1
  8  9  1  0
  3 10  1  1
  4 11  1  6
  5 12  1  1
 12 13  1  0
 13 14  2  0
 18 13  1  0
 14 15  1  0
 15 16  2  0
 17 18  2  0
 22 16  1  0
 16 17  1  0
 17 19  1  0
 19 20  1  0
 20 21  1  0
 21 22  2  0
 20 23  2  0
M  END
>  <MOLREGNO>
500413

>  <CHEMBLID>
CHEMBL526377

>  <SYNONYMS>
Skimmin

>  <MAX_PHASE>
0

>  <MOLWEIGHT>
324.28

>  <ALOGP>
-.27

>  <PSA>
125.68

>  <HBA>
8

>  <HBD>
4

>  <RO5>
0

>  <RTB>
3

>  <RO3>
N

>  <ACD_MOST_APKA>
12.73

>  <ACD_MOST_BPKA>


>  <ACD_LOGP>
-1.23

>  <ACD_LOGD>
-1.23

>  <AROMATIC_RINGS>
1

>  <HEAVY_ATOMS>
23

>  <QED_WEIGHTED>
.44

>  <HBA_LIPINSKI>
8

>  <HBD_LIPINSKI>
4

>  <NUM_LIPINSKI_RO5_VIOLATIONS>
0

>  <MW_MONOISOTOPIC>
324.0845

>  <MOLECULAR_SPECIES>
NEUTRAL

>  <FULL_MOLFORMULA>
C15H16O8

$$$$

  CDK    8/10/10,12:22

 22 24  0  0  0  0  0  0  0  0999 V2000
   -2.8655  -18.4816    0.0000 C   0  0  0  0  0  0  0  0  0  0  0  0
   -2.1522  -18.8945    0.0000 C   0  0  0  0  0  0  0  0  0  0  0  0
   -3.5870  -18.8987    0.0000 C   0  0  0  0  0  0  0  0  0  0  0  0
   -2.8655  -17.6474    0.0000 C   0  0  0  0  0  0  0  0  0  0  0  0
   -1.4348  -17.6558    0.0000 C   0  0  0  0  0  0  0  0  0  0  0  0
   -1.4348  -18.4816    0.0000 C   0  0  0  0  0  0  0  0  0  0  0  0
   -2.1522  -17.2345    0.0000 O   0  0  0  0  0  0  0  0  0  0  0  0
   -4.3002  -18.4858    0.0000 C   0  0  0  0  0  0  0  0  0  0  0  0
   -3.5870  -17.2428    0.0000 C   0  0  0  0  0  0  0  0  0  0  0  0
   -4.2919  -17.6558    0.0000 C   0  0  0  0  0  0  0  0  0  0  0  0
   -0.7215  -17.2428    0.0000 C   0  0  0  0  0  0  0  0  0  0  0  0
   -2.1605  -19.7204    0.0000 O   0  0  0  0  0  0  0  0  0  0  0  0
   -3.5870  -19.7204    0.0000 O   0  0  0  0  0  0  0  0  0  0  0  0
   -0.0083  -17.6600    0.0000 C   0  0  0  0  0  0  0  0  0  0  0  0
   -0.7215  -16.4212    0.0000 C   0  0  0  0  0  0  0  0  0  0  0  0
   -5.0135  -18.8945    0.0000 O   0  0  0  0  0  0  0  0  0  0  0  0
   -5.0135  -17.2470    0.0000 O   0  0  0  0  0  0  0  0  0  0  0  0
    0.7049  -16.4212    0.0000 C   0  0  0  0  0  0  0  0  0  0  0  0
    0.7049  -17.2470    0.0000 C   0  0  0  0  0  0  0  0  0  0  0  0
   -0.0083  -16.0083    0.0000 C   0  0  0  0  0  0  0  0  0  0  0  0
    1.4265  -16.0083    0.0000 O   0  0  0  0  0  0  0  0  0  0  0  0
   -5.7267  -18.4816    0.0000 C   0  0  0  0  0  0  0  0  0  0  0  0
  2  1  1  0  0  0  0 
  3  1  2  0  0  0  0 
  4  1  1  0  0  0  0 
  5  7  1  0  0  0  0 
  6  2  1  0  0  0  0 
  7  4  1  0  0  0  0 
  8  3  1  0  0  0  0 
  9  4  2  0  0  0  0 
 10  9  1  0  0  0  0 
 11  5  1  0  0  0  0 
 12  2  2  0  0  0  0 
 13  3  1  0  0  0  0 
 14 11  2  0  0  0  0 
 15 11  1  0  0  0  0 
 16  8  1  0  0  0  0 
 17 10  1  0  0  0  0 
 18 20  1  0  0  0  0 
 19 14  1  0  0  0  0 
 20 15  2  0  0  0  0 
 21 18  1  0  0  0  0 
 22 16  1  0  0  0  0 
  6  5  2  0  0  0  0 
  8 10  2  0  0  0  0 
 19 18  2  0  0  0  0 
M  END
>  <MOLREGNO>
85900

>  <CHEMBLID>
CHEMBL293776

>  <SYNONYMS>
NSC-122415

>  <MAX_PHASE>
0

>  <MOLWEIGHT>
300.26

>  <ALOGP>
2.39

>  <PSA>
96.22

>  <HBA>
6

>  <HBD>
3

>  <RO5>
0

>  <RTB>
2

>  <RO3>
N

>  <ACD_MOST_APKA>
6.51

>  <ACD_MOST_BPKA>


>  <ACD_LOGP>
2.04

>  <ACD_LOGD>
.83

>  <AROMATIC_RINGS>
2

>  <HEAVY_ATOMS>
22

>  <QED_WEIGHTED>
.79

>  <HBA_LIPINSKI>
6

>  <HBD_LIPINSKI>
3

>  <NUM_LIPINSKI_RO5_VIOLATIONS>
0

>  <MW_MONOISOTOPIC>
300.0634

>  <MOLECULAR_SPECIES>
NEUTRAL

>  <FULL_MOLFORMULA>
C16H12O6

$$$$

  CDK    9/16/09,9:19

 33 36  0  0  0  0  0  0  0  0999 V2000
   -2.8713  -16.6358    0.0000 C   0  0  0  0  0  0  0  0  0  0  0  0
   -2.8724  -17.4630    0.0000 C   0  0  0  0  0  0  0  0  0  0  0  0
   -2.1579  -17.8757    0.0000 C   0  0  0  0  0  0  0  0  0  0  0  0
   -2.1597  -16.2233    0.0000 C   0  0  0  0  0  0  0  0  0  0  0  0
   -1.4445  -16.6322    0.0000 C   0  0  0  0  0  0  0  0  0  0  0  0
   -1.4457  -17.4651    0.0000 C   0  0  0  0  0  0  0  0  0  0  0  0
   -0.7290  -17.8801    0.0000 C   0  0  0  0  0  0  0  0  0  0  0  0
   -0.0067  -17.4671    0.0000 C   0  0  0  0  0  0  0  0  0  0  0  0
   -0.0055  -16.6343    0.0000 C   0  0  0  0  0  0  0  0  0  0  0  0
   -0.7266  -16.2146    0.0000 O   0  0  0  0  0  0  0  0  0  0  0  0
   -0.7314  -18.7048    0.0000 O   0  0  0  0  0  0  0  0  0  0  0  0
    0.7081  -16.2263    0.0000 C   0  0  0  0  0  0  0  0  0  0  0  0
    1.4215  -16.6421    0.0000 C   0  0  0  0  0  0  0  0  0  0  0  0
    2.1363  -16.2322    0.0000 C   0  0  0  0  0  0  0  0  0  0  0  0
    2.1388  -15.4066    0.0000 C   0  0  0  0  0  0  0  0  0  0  0  0
    1.4205  -14.9926    0.0000 C   0  0  0  0  0  0  0  0  0  0  0  0
    0.7088  -15.4050    0.0000 C   0  0  0  0  0  0  0  0  0  0  0  0
    2.8534  -14.9950    0.0000 O   0  0  0  0  0  0  0  0  0  0  0  0
   -2.1582  -18.7004    0.0000 O   0  0  0  0  0  0  0  0  0  0  0  0
   -3.5870  -17.8747    0.0000 O   0  0  0  0  0  0  0  0  0  0  0  0
   -3.5877  -18.6994    0.0000 C   0  0  0  0  0  0  0  0  0  0  0  0
   -3.5867  -16.2241    0.0000 O   0  0  0  0  0  0  0  0  0  0  0  0
   -3.6107  -15.3997    0.0000 C   0  0  0  0  0  0  0  0  0  0  0  0
   -2.9041  -14.9645    0.0000 O   0  0  0  0  0  0  0  0  0  0  0  0
   -2.9261  -14.1437    0.0000 C   0  0  0  0  0  0  0  0  0  0  0  0
   -3.6502  -13.7484    0.0000 C   0  0  0  0  0  0  0  0  0  0  0  0
   -4.3540  -14.1803    0.0000 C   0  0  0  0  0  0  0  0  0  0  0  0
   -4.3335  -15.0074    0.0000 C   0  0  0  0  0  0  0  0  0  0  0  0
   -5.0371  -15.4379    0.0000 O   0  0  0  0  0  0  0  0  0  0  0  0
   -3.6712  -12.9240    0.0000 O   0  0  0  0  0  0  0  0  0  0  0  0
   -5.0786  -13.7864    0.0000 O   0  0  0  0  0  0  0  0  0  0  0  0
   -2.2225  -13.7134    0.0000 C   0  0  0  0  0  0  0  0  0  0  0  0
   -1.4981  -14.1075    0.0000 O   0  0  0  0  0  0  0  0  0  0  0  0
  4  1  1  0  0  0  0 
 16 17  2  0  0  0  0 
 17 12  1  0  0  0  0 
  9 12  1  0  0  0  0 
  5 10  1  0  0  0  0 
 15 18  1  0  0  0  0 
  6  7  1  0  0  0  0 
  3 19  1  0  0  0  0 
  7  8  1  0  0  0  0 
  2 20  1  0  0  0  0 
  8  9  2  0  0  0  0 
 20 21  1  0  0  0  0 
  9 10  1  0  0  0  0 
  1 22  1  0  0  0  0 
  5  6  1  0  0  0  0 
 23 22  1  1  0  0  0 
 23 24  1  0  0  0  0 
  7 11  2  0  0  0  0 
  2  3  1  0  0  0  0 
 12 13  2  0  0  0  0 
  3  6  2  0  0  0  0 
 23 28  1  0  0  0  0 
 24 25  1  0  0  0  0 
 25 26  1  0  0  0  0 
 26 27  1  0  0  0  0 
 27 28  1  0  0  0  0 
 13 14  1  0  0  0  0 
 28 29  1  6  0  0  0 
  1  2  2  0  0  0  0 
 26 30  1  6  0  0  0 
 14 15  2  0  0  0  0 
 27 31  1  1  0  0  0 
  5  4  2  0  0  0  0 
 25 32  1  1  0  0  0 
 15 16  1  0  0  0  0 
 32 33  1  0  0  0  0 
M  END
>  <MOLREGNO>
481219

>  <CHEMBLID>
CHEMBL480657

>  <SYNONYMS>
Hispiduloside | Hispidulin-7-Glucoside

>  <MAX_PHASE>
0

>  <MOLWEIGHT>
462.4

>  <ALOGP>
.46

>  <PSA>
175.37

>  <HBA>
11

>  <HBD>
6

>  <RO5>
2

>  <RTB>
5

>  <RO3>
N

>  <ACD_MOST_APKA>
6.11

>  <ACD_MOST_BPKA>


>  <ACD_LOGP>
-.26

>  <ACD_LOGD>
-1.58

>  <AROMATIC_RINGS>
2

>  <HEAVY_ATOMS>
33

>  <QED_WEIGHTED>
.36

>  <HBA_LIPINSKI>
11

>  <HBD_LIPINSKI>
6

>  <NUM_LIPINSKI_RO5_VIOLATIONS>
2

>  <MW_MONOISOTOPIC>
462.1162

>  <MOLECULAR_SPECIES>
ACID

>  <FULL_MOLFORMULA>
C22H22O11

$$$$

  CDK    9/16/09,10:7

 36 41  0  0  0  0  0  0  0  0999 V2000
    5.7707   -9.1303    0.0000 C   0  0  0  0  0  0  0  0  0  0  0  0
    6.4861   -9.5462    0.0000 O   0  0  0  0  0  0  0  0  0  0  0  0
    5.9426   -8.3225    0.0000 C   0  0  0  0  0  0  0  0  0  0  0  0
    6.7642   -8.2375    0.0000 C   0  0  0  0  0  0  0  0  0  0  0  0
    7.0969   -8.9924    0.0000 C   0  0  0  0  0  0  0  0  0  0  0  0
    7.9110   -9.0828    0.0000 C   0  0  0  0  0  0  0  0  0  0  0  0
    8.3985   -8.4206    0.0000 C   0  0  0  0  0  0  0  0  0  0  0  0
    8.0700   -7.6698    0.0000 C   0  0  0  0  0  0  0  0  0  0  0  0
    7.2498   -7.5729    0.0000 N   0  0  0  0  0  0  0  0  0  0  0  0
    9.2209   -8.5172    0.0000 C   0  0  0  0  0  0  0  0  0  0  0  0
    7.5012   -9.7061    0.0000 H   0  0  0  0  0  0  0  0  0  0  0  0
    5.3923   -7.7099    0.0000 C   0  0  0  0  0  0  0  0  0  0  0  0
    6.3449   -7.5141    0.0000 H   0  0  0  0  0  0  0  0  0  0  0  0
    1.3250  -10.9947    0.0000 C   0  0  0  0  0  0  0  0  0  0  0  0
    1.3250  -11.8225    0.0000 C   0  0  0  0  0  0  0  0  0  0  0  0
    2.0399  -12.2343    0.0000 C   0  0  0  0  0  0  0  0  0  0  0  0
    2.0399  -10.5790    0.0000 C   0  0  0  0  0  0  0  0  0  0  0  0
    2.7549  -10.9947    0.0000 C   0  0  0  0  0  0  0  0  0  0  0  0
    2.7514  -11.8225    0.0000 C   0  0  0  0  0  0  0  0  0  0  0  0
    3.4630  -12.2392    0.0000 C   0  0  0  0  0  0  0  0  0  0  0  0
    4.1785  -11.8285    0.0000 C   0  0  0  0  0  0  0  0  0  0  0  0
    3.4700  -10.5838    0.0000 C   0  0  0  0  0  0  0  0  0  0  0  0
    4.1794  -10.9969    0.0000 C   0  0  0  0  0  0  0  0  0  0  0  0
    3.6438   -9.7772    0.0000 C   0  0  0  0  0  0  0  0  0  0  0  0
    4.1741  -10.1672    0.0000 H   0  0  0  0  0  0  0  0  0  0  0  0
    4.7896  -11.2777    0.0000 H   0  0  0  0  0  0  0  0  0  0  0  0
    3.4629  -11.4107    0.0000 H   0  0  0  0  0  0  0  0  0  0  0  0
    0.6082  -12.2395    0.0000 O   0  0  0  0  0  0  0  0  0  0  0  0
    2.7475  -10.1672    0.0000 C   0  0  0  0  0  0  0  0  0  0  0  0
    3.0933   -9.1615    0.0000 O   0  0  0  0  0  0  0  0  0  0  0  0
    4.4648   -9.6944    0.0000 C   0  0  0  0  0  0  0  0  0  0  0  0
    4.7912  -10.4500    0.0000 C   0  0  0  0  0  0  0  0  0  0  0  0
    5.6044  -10.5447    0.0000 C   0  0  0  0  0  0  0  0  0  0  0  0
    6.0971   -9.8861    0.0000 C   0  0  0  0  0  0  0  0  0  0  0  0
    4.9516   -9.0333    0.0000 C   0  0  0  0  0  0  0  0  0  0  0  0
    4.6231   -8.2754    0.0000 C   0  0  0  0  0  0  0  0  0  0  0  0
  8  9  1  0  0  0  0 
  2  5  1  0  0  0  0 
  7 10  1  1  0  0  0 
  4  3  1  0  0  0  0 
  5 11  1  6  0  0  0 
  3 12  1  6  0  0  0 
  4 13  1  1  0  0  0 
  3  1  1  0  0  0  0 
 18 17  1  0  0  0  0 
 18 19  1  0  0  0  0 
 14 15  1  0  0  0  0 
 18 22  1  0  0  0  0 
 19 20  2  0  0  0  0 
 20 21  1  0  0  0  0 
 21 23  1  0  0  0  0 
 22 23  1  0  0  0  0 
 14 17  1  0  0  0  0 
 23 32  1  0  0  0  0 
 31 24  1  0  0  0  0 
 23 25  1  1  0  0  0 
 24 22  1  0  0  0  0 
 32 26  1  6  0  0  0 
 15 16  1  0  0  0  0 
 22 27  1  6  0  0  0 
 16 19  1  0  0  0  0 
 15 28  1  1  0  0  0 
 18 29  1  1  0  0  0 
 24 30  2  0  0  0  0 
 31 32  1  0  0  0  0 
  1  2  1  1  0  0  0 
  4  5  1  0  0  0  0 
  4  9  1  0  0  0  0 
  5  6  1  0  0  0  0 
  6  7  1  0  0  0  0 
 31 35  2  0  0  0  0 
 32 33  1  0  0  0  0 
 33 34  1  0  0  0  0 
 34  1  1  0  0  0  0 
  1 35  1  0  0  0  0 
  7  8  1  0  0  0  0 
 35 36  1  0  0  0  0 
M  END
>  <MOLREGNO>
316271

>  <CHEMBLID>
CHEMBL186779

>  <SYNONYMS>
Jervine

>  <MAX_PHASE>
0

>  <MOLWEIGHT>
425.6

>  <ALOGP>
3.47

>  <PSA>
58.55

>  <HBA>
4

>  <HBD>
2

>  <RO5>
0

>  <RTB>
0

>  <RO3>
N

>  <ACD_MOST_APKA>


>  <ACD_MOST_BPKA>
10.48

>  <ACD_LOGP>
4.85

>  <ACD_LOGD>
2.05

>  <AROMATIC_RINGS>
0

>  <HEAVY_ATOMS>
31

>  <QED_WEIGHTED>
.58

>  <HBA_LIPINSKI>
4

>  <HBD_LIPINSKI>
2

>  <NUM_LIPINSKI_RO5_VIOLATIONS>
0

>  <MW_MONOISOTOPIC>
425.293

>  <MOLECULAR_SPECIES>
BASE

>  <FULL_MOLFORMULA>
C27H39NO3

$$$$

  CDK    9/16/09,9:19

 33 37  0  0  0  0  0  0  0  0999 V2000
   -3.7539   -1.4509    0.0000 C   0  0  0  0  0  0  0  0  0  0  0  0
   -4.4697   -1.8634    0.0000 O   0  0  0  0  0  0  0  0  0  0  0  0
   -3.7539   -0.6259    0.0000 C   0  0  0  0  0  0  0  0  0  0  0  0
   -3.0380   -0.2134    0.0000 C   0  0  0  0  0  0  0  0  0  0  0  0
   -3.0380   -1.8634    0.0000 C   0  0  0  0  0  0  0  0  0  0  0  0
   -2.3263   -1.4509    0.0000 C   0  0  0  0  0  0  0  0  0  0  0  0
   -1.6105   -1.8634    0.0000 C   0  0  0  0  0  0  0  0  0  0  0  0
   -0.8988   -1.4509    0.0000 C   0  0  0  0  0  0  0  0  0  0  0  0
   -0.8988   -0.6259    0.0000 C   0  0  0  0  0  0  0  0  0  0  0  0
   -0.2823   -0.0770    0.0000 C   0  0  0  0  0  0  0  0  0  0  0  0
    0.5358   -0.1618    0.0000 C   0  0  0  0  0  0  0  0  0  0  0  0
    1.0206    0.5078    0.0000 C   0  0  0  0  0  0  0  0  0  0  0  0
    0.6871    1.2623    0.0000 C   0  0  0  0  0  0  0  0  0  0  0  0
    1.1719    1.9277    0.0000 C   0  0  0  0  0  0  0  0  0  0  0  0
    0.8343    2.6821    0.0000 C   0  0  0  0  0  0  0  0  0  0  0  0
    1.9900    1.8429    0.0000 C   0  0  0  0  0  0  0  0  0  0  0  0
    2.3276    1.0884    0.0000 C   0  0  0  0  0  0  0  0  0  0  0  0
    1.8429    0.4188    0.0000 O   0  0  0  0  0  0  0  0  0  0  0  0
    3.1499    1.0036    0.0000 C   0  0  0  0  0  0  0  0  0  0  0  0
    3.6305    1.6690    0.0000 C   0  0  0  0  0  0  0  0  0  0  0  0
    3.2971    2.4235    0.0000 C   0  0  0  0  0  0  0  0  0  0  0  0
    2.4748    2.5083    0.0000 N   0  0  0  0  0  0  0  0  0  0  0  0
    4.4528    1.5800    0.0000 C   0  0  0  0  0  0  0  0  0  0  0  0
   -0.1352    1.3471    0.0000 C   0  0  0  0  0  0  0  0  0  0  0  0
   -0.4686    2.1015    0.0000 C   0  0  0  0  0  0  0  0  0  0  0  0
   -0.6199    0.6775    0.0000 C   0  0  0  0  0  0  0  0  0  0  0  0
   -1.4381    0.5926    0.0000 C   0  0  0  0  0  0  0  0  0  0  0  0
   -1.6105   -0.2134    0.0000 C   0  0  0  0  0  0  0  0  0  0  0  0
   -2.3263   -0.6259    0.0000 C   0  0  0  0  0  0  0  0  0  0  0  0
   -2.3263    0.1991    0.0000 C   0  0  0  0  0  0  0  0  0  0  0  0
   -1.6105   -1.0384    0.0000 H   0  0  0  0  0  0  0  0  0  0  0  0
   -0.8988    0.1991    0.0000 H   0  0  0  0  0  0  0  0  0  0  0  0
    1.5708    2.5625    0.0000 H   0  0  0  0  0  0  0  0  0  0  0  0
  1  2  1  1  0  0  0 
  1  3  1  0  0  0  0 
  3  4  1  0  0  0  0 
  1  5  1  0  0  0  0 
  5  6  1  0  0  0  0 
  6  7  2  0  0  0  0 
  7  8  1  0  0  0  0 
  8  9  1  0  0  0  0 
  9 10  1  0  0  0  0 
 10 11  2  0  0  0  0 
 11 12  1  0  0  0  0 
 12 13  2  0  0  0  0 
 13 14  1  0  0  0  0 
 14 15  1  6  0  0  0 
 14 16  1  0  0  0  0 
 16 17  1  0  0  0  0 
 17 18  1  1  0  0  0 
 17 19  1  0  0  0  0 
 19 20  1  0  0  0  0 
 20 21  1  0  0  0  0 
 21 22  1  0  0  0  0 
 16 22  1  0  0  0  0 
 20 23  1  1  0  0  0 
 13 24  1  0  0  0  0 
 24 25  1  0  0  0  0 
 24 26  2  0  0  0  0 
 10 26  1  0  0  0  0 
 26 27  1  0  0  0  0 
 27 28  1  0  0  0  0 
  9 28  1  0  0  0  0 
 28 29  1  0  0  0  0 
  4 29  1  0  0  0  0 
  6 29  1  0  0  0  0 
 29 30  1  1  0  0  0 
 28 31  1  6  0  0  0 
  9 32  1  1  0  0  0 
 16 33  1  1  0  0  0 
M  END
>  <MOLREGNO>
462884

>  <CHEMBLID>
CHEMBL464724

>  <SYNONYMS>
Veratramine

>  <MAX_PHASE>
0

>  <MOLWEIGHT>
409.6

>  <ALOGP>
4.66

>  <PSA>
52.49

>  <HBA>
3

>  <HBD>
3

>  <RO5>
0

>  <RTB>
2

>  <RO3>
N

>  <ACD_MOST_APKA>


>  <ACD_MOST_BPKA>
9.39

>  <ACD_LOGP>
5.94

>  <ACD_LOGD>
3.96

>  <AROMATIC_RINGS>
1

>  <HEAVY_ATOMS>
30

>  <QED_WEIGHTED>
.62

>  <HBA_LIPINSKI>
3

>  <HBD_LIPINSKI>
3

>  <NUM_LIPINSKI_RO5_VIOLATIONS>
0

>  <MW_MONOISOTOPIC>
409.2981

>  <MOLECULAR_SPECIES>
BASE

>  <FULL_MOLFORMULA>
C27H39NO2

$$$$
